data_image0
_chemical_formula_structural       Ta2000
_chemical_formula_sum              "Ta2000"
_cell_length_a       33.16
_cell_length_b       33.16
_cell_length_c       33.16
_cell_angle_alpha    90
_cell_angle_beta     90
_cell_angle_gamma    90

_space_group_name_H-M_alt    "P 1"
_space_group_IT_number       1

loop_
  _space_group_symop_operation_xyz
  'x, y, z'

loop_
  _atom_site_type_symbol
  _atom_site_label
  _atom_site_symmetry_multiplicity
  _atom_site_fract_x
  _atom_site_fract_y
  _atom_site_fract_z
  _atom_site_occupancy
  Ta  Ta1       1.0  0.01203  0.99309  0.97461  1.0000
  Ta  Ta2       1.0  0.02421  0.09884  0.07090  1.0000
  Ta  Ta3       1.0  0.09456  0.00569  0.02598  1.0000
  Ta  Ta4       1.0  0.12115  0.06660  0.08957  1.0000
  Ta  Ta5       1.0  0.15959  0.04982  0.99236  1.0000
  Ta  Ta6       1.0  0.25895  0.04987  0.07129  1.0000
  Ta  Ta7       1.0  0.26899  0.00430  0.00560  1.0000
  Ta  Ta8       1.0  0.40803  0.05913  0.05449  1.0000
  Ta  Ta9       1.0  0.40603  0.93319  0.06960  1.0000
  Ta  Ta10      1.0  0.48248  0.03180  0.00580  1.0000
  Ta  Ta11      1.0  0.46197  0.99647  0.06692  1.0000
  Ta  Ta12      1.0  0.54625  0.04367  0.07031  1.0000
  Ta  Ta13      1.0  0.54755  0.98343  0.00320  1.0000
  Ta  Ta14      1.0  0.70293  0.97223  0.17478  1.0000
  Ta  Ta15      1.0  0.67395  0.99976  0.02598  1.0000
  Ta  Ta16      1.0  0.79151  0.96713  0.03475  1.0000
  Ta  Ta17      1.0  0.83839  0.92482  0.97015  1.0000
  Ta  Ta18      1.0  0.81453  0.05227  0.05345  1.0000
  Ta  Ta19      1.0  0.79739  0.99759  0.96514  1.0000
  Ta  Ta20      1.0  0.96162  0.02496  0.03856  1.0000
  Ta  Ta21      1.0  0.01570  0.06412  0.96692  1.0000
  Ta  Ta22      1.0  0.10505  0.17348  0.94383  1.0000
  Ta  Ta23      1.0  0.08793  0.08038  0.99742  1.0000
  Ta  Ta24      1.0  0.14551  0.13031  0.01850  1.0000
  Ta  Ta25      1.0  0.25356  0.05709  0.96146  1.0000
  Ta  Ta26      1.0  0.23651  0.11105  0.01675  1.0000
  Ta  Ta27      1.0  0.38910  0.05002  0.98153  1.0000
  Ta  Ta28      1.0  0.36585  0.13440  0.05744  1.0000
  Ta  Ta29      1.0  0.44282  0.13754  0.08015  1.0000
  Ta  Ta30      1.0  0.49432  0.20315  0.09547  1.0000
  Ta  Ta31      1.0  0.51684  0.10613  0.04168  1.0000
  Ta  Ta32      1.0  0.59017  0.09408  0.13799  1.0000
  Ta  Ta33      1.0  0.59223  0.13179  0.04233  1.0000
  Ta  Ta34      1.0  0.66939  0.18589  0.03667  1.0000
  Ta  Ta35      1.0  0.66360  0.09377  0.05330  1.0000
  Ta  Ta36      1.0  0.73731  0.01835  0.06748  1.0000
  Ta  Ta37      1.0  0.74283  0.14049  0.98412  1.0000
  Ta  Ta38      1.0  0.89160  0.15798  0.08418  1.0000
  Ta  Ta39      1.0  0.88357  0.09746  0.03503  1.0000
  Ta  Ta40      1.0  0.94967  0.11728  0.07860  1.0000
  Ta  Ta41      1.0  0.94670  0.19735  0.01392  1.0000
  Ta  Ta42      1.0  0.04379  0.21075  0.99748  1.0000
  Ta  Ta43      1.0  0.18737  0.10761  0.93243  1.0000
  Ta  Ta44      1.0  0.10979  0.26218  0.98344  1.0000
  Ta  Ta45      1.0  0.25650  0.12246  0.86735  1.0000
  Ta  Ta46      1.0  0.16875  0.19640  0.89197  1.0000
  Ta  Ta47      1.0  0.28963  0.14109  0.96121  1.0000
  Ta  Ta48      1.0  0.33500  0.26232  0.99453  1.0000
  Ta  Ta49      1.0  0.44085  0.17974  0.01060  1.0000
  Ta  Ta50      1.0  0.45603  0.25391  0.03617  1.0000
  Ta  Ta51      1.0  0.52708  0.19418  0.00924  1.0000
  Ta  Ta52      1.0  0.48703  0.32669  0.02631  1.0000
  Ta  Ta53      1.0  0.59451  0.22449  0.99810  1.0000
  Ta  Ta54      1.0  0.60860  0.23657  0.07289  1.0000
  Ta  Ta55      1.0  0.67934  0.21310  0.97274  1.0000
  Ta  Ta56      1.0  0.82108  0.28771  0.02962  1.0000
  Ta  Ta57      1.0  0.77845  0.22014  0.98650  1.0000
  Ta  Ta58      1.0  0.88018  0.22144  0.04155  1.0000
  Ta  Ta59      1.0  0.80864  0.13757  0.04954  1.0000
  Ta  Ta60      1.0  0.94279  0.21152  0.11557  1.0000
  Ta  Ta61      1.0  0.97647  0.26169  0.03760  1.0000
  Ta  Ta62      1.0  0.04396  0.31353  0.01519  1.0000
  Ta  Ta63      1.0  0.12261  0.33590  0.96998  1.0000
  Ta  Ta64      1.0  0.14898  0.36941  0.11595  1.0000
  Ta  Ta65      1.0  0.20937  0.25830  0.02029  1.0000
  Ta  Ta66      1.0  0.21487  0.32235  0.08484  1.0000
  Ta  Ta67      1.0  0.26323  0.30467  0.94151  1.0000
  Ta  Ta68      1.0  0.27044  0.44391  0.00766  1.0000
  Ta  Ta69      1.0  0.40188  0.38497  0.03278  1.0000
  Ta  Ta70      1.0  0.45802  0.38323  0.97122  1.0000
  Ta  Ta71      1.0  0.47578  0.27155  0.96698  1.0000
  Ta  Ta72      1.0  0.54195  0.37230  0.99495  1.0000
  Ta  Ta73      1.0  0.55404  0.28533  0.98583  1.0000
  Ta  Ta74      1.0  0.67367  0.29898  0.05072  1.0000
  Ta  Ta75      1.0  0.72651  0.28788  0.00649  1.0000
  Ta  Ta76      1.0  0.79218  0.36546  0.06333  1.0000
  Ta  Ta77      1.0  0.79726  0.31309  0.95714  1.0000
  Ta  Ta78      1.0  0.86695  0.35974  0.05440  1.0000
  Ta  Ta79      1.0  0.89021  0.28225  0.98486  1.0000
  Ta  Ta80      1.0  0.95663  0.44774  0.02919  1.0000
  Ta  Ta81      1.0  0.02088  0.36957  0.95129  1.0000
  Ta  Ta82      1.0  0.99578  0.49858  0.89770  1.0000
  Ta  Ta83      1.0  0.03309  0.42291  0.00382  1.0000
  Ta  Ta84      1.0  0.08140  0.48135  0.07925  1.0000
  Ta  Ta85      1.0  0.16813  0.35113  0.03324  1.0000
  Ta  Ta86      1.0  0.21692  0.40649  0.07332  1.0000
  Ta  Ta87      1.0  0.24102  0.34600  0.00385  1.0000
  Ta  Ta88      1.0  0.30711  0.51826  0.04741  1.0000
  Ta  Ta89      1.0  0.33021  0.34051  0.99563  1.0000
  Ta  Ta90      1.0  0.51822  0.44257  0.01122  1.0000
  Ta  Ta91      1.0  0.58680  0.44090  0.98514  1.0000
  Ta  Ta92      1.0  0.57702  0.43680  0.06566  1.0000
  Ta  Ta93      1.0  0.63941  0.34662  0.99494  1.0000
  Ta  Ta94      1.0  0.64679  0.38426  0.06782  1.0000
  Ta  Ta95      1.0  0.66353  0.42579  0.00149  1.0000
  Ta  Ta96      1.0  0.72299  0.43884  0.07020  1.0000
  Ta  Ta97      1.0  0.75155  0.40595  0.99737  1.0000
  Ta  Ta98      1.0  0.88645  0.45011  0.07923  1.0000
  Ta  Ta99      1.0  0.95226  0.35915  0.00892  1.0000
  Ta  Ta100     1.0  0.95556  0.48965  0.07801  1.0000
  Ta  Ta101     1.0  0.94366  0.98644  0.10173  1.0000
  Ta  Ta102     1.0  0.98845  0.05569  0.13128  1.0000
  Ta  Ta103     1.0  0.04326  0.99497  0.11919  1.0000
  Ta  Ta104     1.0  0.11122  0.00966  0.14577  1.0000
  Ta  Ta105     1.0  0.11548  0.94608  0.08394  1.0000
  Ta  Ta106     1.0  0.22564  0.10433  0.17233  1.0000
  Ta  Ta107     1.0  0.33970  0.02666  0.09768  1.0000
  Ta  Ta108     1.0  0.29077  0.06744  0.15710  1.0000
  Ta  Ta109     1.0  0.38640  0.86298  0.08382  1.0000
  Ta  Ta110     1.0  0.40881  0.01602  0.12466  1.0000
  Ta  Ta111     1.0  0.48567  0.04019  0.12478  1.0000
  Ta  Ta112     1.0  0.57282  0.02309  0.16057  1.0000
  Ta  Ta113     1.0  0.60107  0.98915  0.06374  1.0000
  Ta  Ta114     1.0  0.66679  0.06881  0.15457  1.0000
  Ta  Ta115     1.0  0.76632  0.02207  0.14808  1.0000
  Ta  Ta116     1.0  0.75878  0.11297  0.14058  1.0000
  Ta  Ta117     1.0  0.83499  0.08665  0.13000  1.0000
  Ta  Ta118     1.0  0.92380  0.00788  0.24195  1.0000
  Ta  Ta119     1.0  0.83893  0.00674  0.11039  1.0000
  Ta  Ta120     1.0  0.89726  0.02996  0.17097  1.0000
  Ta  Ta121     1.0  0.01503  0.14501  0.99842  1.0000
  Ta  Ta122     1.0  0.91055  0.21317  0.19379  1.0000
  Ta  Ta123     1.0  0.08494  0.14371  0.05583  1.0000
  Ta  Ta124     1.0  0.20687  0.09860  0.09348  1.0000
  Ta  Ta125     1.0  0.17719  0.00905  0.05591  1.0000
  Ta  Ta126     1.0  0.27712  0.13942  0.10460  1.0000
  Ta  Ta127     1.0  0.33123  0.08155  0.01712  1.0000
  Ta  Ta128     1.0  0.34808  0.18828  0.12736  1.0000
  Ta  Ta129     1.0  0.36728  0.09933  0.12786  1.0000
  Ta  Ta130     1.0  0.42068  0.19674  0.11676  1.0000
  Ta  Ta131     1.0  0.51435  0.11453  0.12362  1.0000
  Ta  Ta132     1.0  0.58407  0.15509  0.19212  1.0000
  Ta  Ta133     1.0  0.66148  0.02304  0.09515  1.0000
  Ta  Ta134     1.0  0.64536  0.20939  0.17622  1.0000
  Ta  Ta135     1.0  0.66439  0.14831  0.11306  1.0000
  Ta  Ta136     1.0  0.73268  0.18810  0.13120  1.0000
  Ta  Ta137     1.0  0.72747  0.13638  0.06379  1.0000
  Ta  Ta138     1.0  0.85552  0.10052  0.19930  1.0000
  Ta  Ta139     1.0  0.89905  0.06108  0.10607  1.0000
  Ta  Ta140     1.0  0.98857  0.13307  0.15879  1.0000
  Ta  Ta141     1.0  0.00928  0.19525  0.07125  1.0000
  Ta  Ta142     1.0  0.98836  0.21959  0.18148  1.0000
  Ta  Ta143     1.0  0.06208  0.17800  0.14108  1.0000
  Ta  Ta144     1.0  0.13238  0.14978  0.11153  1.0000
  Ta  Ta145     1.0  0.11213  0.21381  0.04025  1.0000
  Ta  Ta146     1.0  0.31061  0.24685  0.09793  1.0000
  Ta  Ta147     1.0  0.31029  0.18497  0.04480  1.0000
  Ta  Ta148     1.0  0.35002  0.30510  0.06840  1.0000
  Ta  Ta149     1.0  0.38392  0.22409  0.05847  1.0000
  Ta  Ta150     1.0  0.43347  0.38384  0.16557  1.0000
  Ta  Ta151     1.0  0.53246  0.28073  0.06914  1.0000
  Ta  Ta152     1.0  0.58606  0.28147  0.13774  1.0000
  Ta  Ta153     1.0  0.58384  0.17535  0.11850  1.0000
  Ta  Ta154     1.0  0.75367  0.28392  0.08893  1.0000
  Ta  Ta155     1.0  0.67458  0.25346  0.11287  1.0000
  Ta  Ta156     1.0  0.80124  0.23100  0.18265  1.0000
  Ta  Ta157     1.0  0.73421  0.21955  0.05233  1.0000
  Ta  Ta158     1.0  0.81634  0.21202  0.08240  1.0000
  Ta  Ta159     1.0  0.90684  0.29624  0.06692  1.0000
  Ta  Ta160     1.0  0.97952  0.27393  0.12061  1.0000
  Ta  Ta161     1.0  0.07981  0.24407  0.10209  1.0000
  Ta  Ta162     1.0  0.05738  0.33185  0.11848  1.0000
  Ta  Ta163     1.0  0.14039  0.29563  0.14167  1.0000
  Ta  Ta164     1.0  0.23826  0.38516  0.14973  1.0000
  Ta  Ta165     1.0  0.12368  0.29751  0.06290  1.0000
  Ta  Ta166     1.0  0.18631  0.22518  0.09723  1.0000
  Ta  Ta167     1.0  0.26617  0.21436  0.98078  1.0000
  Ta  Ta168     1.0  0.20252  0.17759  0.03216  1.0000
  Ta  Ta169     1.0  0.42193  0.31739  0.10874  1.0000
  Ta  Ta170     1.0  0.36312  0.41141  0.09812  1.0000
  Ta  Ta171     1.0  0.48641  0.29573  0.13914  1.0000
  Ta  Ta172     1.0  0.58610  0.39089  0.12413  1.0000
  Ta  Ta173     1.0  0.60433  0.31013  0.05271  1.0000
  Ta  Ta174     1.0  0.65366  0.32756  0.14527  1.0000
  Ta  Ta175     1.0  0.79437  0.33664  0.16260  1.0000
  Ta  Ta176     1.0  0.80073  0.39727  0.21806  1.0000
  Ta  Ta177     1.0  0.82508  0.27743  0.11072  1.0000
  Ta  Ta178     1.0  0.87640  0.39599  0.20638  1.0000
  Ta  Ta179     1.0  0.99859  0.34457  0.07430  1.0000
  Ta  Ta180     1.0  0.96868  0.35114  0.14277  1.0000
  Ta  Ta181     1.0  0.01641  0.41802  0.08433  1.0000
  Ta  Ta182     1.0  0.08598  0.40169  0.13536  1.0000
  Ta  Ta183     1.0  0.09478  0.38878  0.05131  1.0000
  Ta  Ta184     1.0  0.08656  0.42312  0.21415  1.0000
  Ta  Ta185     1.0  0.15601  0.45829  0.07442  1.0000
  Ta  Ta186     1.0  0.21187  0.47420  0.16129  1.0000
  Ta  Ta187     1.0  0.27874  0.44821  0.09865  1.0000
  Ta  Ta188     1.0  0.35532  0.50467  0.10639  1.0000
  Ta  Ta189     1.0  0.33696  0.43024  0.02474  1.0000
  Ta  Ta190     1.0  0.50340  0.44415  0.08983  1.0000
  Ta  Ta191     1.0  0.45219  0.37735  0.08278  1.0000
  Ta  Ta192     1.0  0.53226  0.35976  0.08341  1.0000
  Ta  Ta193     1.0  0.62824  0.51107  0.13196  1.0000
  Ta  Ta194     1.0  0.71065  0.48434  0.14009  1.0000
  Ta  Ta195     1.0  0.72227  0.35335  0.11928  1.0000
  Ta  Ta196     1.0  0.81083  0.40698  0.12402  1.0000
  Ta  Ta197     1.0  0.87153  0.34966  0.13407  1.0000
  Ta  Ta198     1.0  0.80450  0.46248  0.17894  1.0000
  Ta  Ta199     1.0  0.93084  0.39437  0.07661  1.0000
  Ta  Ta200     1.0  0.95142  0.43841  0.14757  1.0000
  Ta  Ta201     1.0  0.05858  0.02550  0.19796  1.0000
  Ta  Ta202     1.0  0.05898  0.08052  0.15146  1.0000
  Ta  Ta203     1.0  0.15237  0.96389  0.19418  1.0000
  Ta  Ta204     1.0  0.13982  0.08636  0.17610  1.0000
  Ta  Ta205     1.0  0.18193  0.03657  0.13559  1.0000
  Ta  Ta206     1.0  0.29052  0.00986  0.23371  1.0000
  Ta  Ta207     1.0  0.32332  0.93991  0.20956  1.0000
  Ta  Ta208     1.0  0.36989  0.98995  0.17701  1.0000
  Ta  Ta209     1.0  0.47438  0.97534  0.24837  1.0000
  Ta  Ta210     1.0  0.42951  0.11195  0.24155  1.0000
  Ta  Ta211     1.0  0.61878  0.99808  0.23655  1.0000
  Ta  Ta212     1.0  0.53595  0.03308  0.25564  1.0000
  Ta  Ta213     1.0  0.61209  0.95756  0.15255  1.0000
  Ta  Ta214     1.0  0.75691  0.09251  0.27553  1.0000
  Ta  Ta215     1.0  0.78494  0.99533  0.23567  1.0000
  Ta  Ta216     1.0  0.73530  0.19486  0.28905  1.0000
  Ta  Ta217     1.0  0.77885  0.06893  0.20824  1.0000
  Ta  Ta218     1.0  0.79271  0.15252  0.23612  1.0000
  Ta  Ta219     1.0  0.97742  0.11168  0.33827  1.0000
  Ta  Ta220     1.0  0.00247  0.07151  0.22225  1.0000
  Ta  Ta221     1.0  0.91417  0.12272  0.15671  1.0000
  Ta  Ta222     1.0  0.10100  0.10776  0.26428  1.0000
  Ta  Ta223     1.0  0.05536  0.15491  0.21931  1.0000
  Ta  Ta224     1.0  0.14241  0.17337  0.21574  1.0000
  Ta  Ta225     1.0  0.20008  0.16701  0.14996  1.0000
  Ta  Ta226     1.0  0.25443  0.16554  0.24510  1.0000
  Ta  Ta227     1.0  0.29763  0.14215  0.19263  1.0000
  Ta  Ta228     1.0  0.31558  0.24918  0.27960  1.0000
  Ta  Ta229     1.0  0.35615  0.07006  0.22733  1.0000
  Ta  Ta230     1.0  0.43945  0.10682  0.14972  1.0000
  Ta  Ta231     1.0  0.52312  0.07949  0.18683  1.0000
  Ta  Ta232     1.0  0.66420  0.19373  0.25411  1.0000
  Ta  Ta233     1.0  0.62116  0.08443  0.22736  1.0000
  Ta  Ta234     1.0  0.73424  0.20517  0.20371  1.0000
  Ta  Ta235     1.0  0.70128  0.12746  0.18451  1.0000
  Ta  Ta236     1.0  0.77003  0.25313  0.26241  1.0000
  Ta  Ta237     1.0  0.82315  0.16650  0.30339  1.0000
  Ta  Ta238     1.0  0.89552  0.14092  0.26035  1.0000
  Ta  Ta239     1.0  0.93795  0.08573  0.24799  1.0000
  Ta  Ta240     1.0  0.95815  0.17987  0.32088  1.0000
  Ta  Ta241     1.0  0.97052  0.16422  0.23528  1.0000
  Ta  Ta242     1.0  0.06797  0.25336  0.18914  1.0000
  Ta  Ta243     1.0  0.13939  0.22597  0.16296  1.0000
  Ta  Ta244     1.0  0.21881  0.28829  0.15637  1.0000
  Ta  Ta245     1.0  0.25777  0.20722  0.12929  1.0000
  Ta  Ta246     1.0  0.30802  0.22724  0.19205  1.0000
  Ta  Ta247     1.0  0.27227  0.28922  0.04934  1.0000
  Ta  Ta248     1.0  0.24243  0.25688  0.33106  1.0000
  Ta  Ta249     1.0  0.38575  0.15702  0.19098  1.0000
  Ta  Ta250     1.0  0.44163  0.23379  0.18291  1.0000
  Ta  Ta251     1.0  0.48117  0.16662  0.17815  1.0000
  Ta  Ta252     1.0  0.53172  0.22776  0.16405  1.0000
  Ta  Ta253     1.0  0.65514  0.28040  0.20819  1.0000
  Ta  Ta254     1.0  0.68571  0.26665  0.27399  1.0000
  Ta  Ta255     1.0  0.73679  0.28265  0.17045  1.0000
  Ta  Ta256     1.0  0.76793  0.32255  0.27853  1.0000
  Ta  Ta257     1.0  0.82430  0.16186  0.16080  1.0000
  Ta  Ta258     1.0  0.90014  0.28122  0.15412  1.0000
  Ta  Ta259     1.0  0.95286  0.24471  0.25636  1.0000
  Ta  Ta260     1.0  0.04880  0.35336  0.38092  1.0000
  Ta  Ta261     1.0  0.00685  0.31376  0.21037  1.0000
  Ta  Ta262     1.0  0.06144  0.37051  0.28396  1.0000
  Ta  Ta263     1.0  0.14846  0.27972  0.23331  1.0000
  Ta  Ta264     1.0  0.18114  0.32916  0.28798  1.0000
  Ta  Ta265     1.0  0.22605  0.35133  0.21462  1.0000
  Ta  Ta266     1.0  0.29361  0.37532  0.20768  1.0000
  Ta  Ta267     1.0  0.24477  0.28455  0.24453  1.0000
  Ta  Ta268     1.0  0.35362  0.34478  0.27454  1.0000
  Ta  Ta269     1.0  0.37915  0.24765  0.15594  1.0000
  Ta  Ta270     1.0  0.35942  0.33631  0.13956  1.0000
  Ta  Ta271     1.0  0.42687  0.46372  0.13578  1.0000
  Ta  Ta272     1.0  0.51410  0.37559  0.15732  1.0000
  Ta  Ta273     1.0  0.57782  0.34905  0.18939  1.0000
  Ta  Ta274     1.0  0.64277  0.39251  0.19402  1.0000
  Ta  Ta275     1.0  0.70683  0.35655  0.23396  1.0000
  Ta  Ta276     1.0  0.84035  0.36410  0.28916  1.0000
  Ta  Ta277     1.0  0.82763  0.29761  0.21884  1.0000
  Ta  Ta278     1.0  0.91498  0.38109  0.28765  1.0000
  Ta  Ta279     1.0  0.92916  0.32864  0.20928  1.0000
  Ta  Ta280     1.0  0.96302  0.39456  0.23432  1.0000
  Ta  Ta281     1.0  0.02327  0.39187  0.18638  1.0000
  Ta  Ta282     1.0  0.01912  0.44937  0.25304  1.0000
  Ta  Ta283     1.0  0.08179  0.33585  0.21332  1.0000
  Ta  Ta284     1.0  0.09881  0.46726  0.28872  1.0000
  Ta  Ta285     1.0  0.15931  0.37704  0.18923  1.0000
  Ta  Ta286     1.0  0.25622  0.52122  0.22495  1.0000
  Ta  Ta287     1.0  0.30178  0.37566  0.06605  1.0000
  Ta  Ta288     1.0  0.35811  0.39565  0.19454  1.0000
  Ta  Ta289     1.0  0.28541  0.30459  0.13282  1.0000
  Ta  Ta290     1.0  0.38806  0.48308  0.28820  1.0000
  Ta  Ta291     1.0  0.44469  0.46954  0.22236  1.0000
  Ta  Ta292     1.0  0.50617  0.41073  0.22354  1.0000
  Ta  Ta293     1.0  0.58885  0.41823  0.24120  1.0000
  Ta  Ta294     1.0  0.67244  0.41874  0.27361  1.0000
  Ta  Ta295     1.0  0.73881  0.40434  0.17348  1.0000
  Ta  Ta296     1.0  0.75434  0.45021  0.25074  1.0000
  Ta  Ta297     1.0  0.83313  0.45619  0.26609  1.0000
  Ta  Ta298     1.0  0.89402  0.49278  0.33094  1.0000
  Ta  Ta299     1.0  0.86449  0.48274  0.14838  1.0000
  Ta  Ta300     1.0  0.94365  0.46576  0.28266  1.0000
  Ta  Ta301     1.0  0.02244  0.04158  0.30166  1.0000
  Ta  Ta302     1.0  0.05631  0.99634  0.36198  1.0000
  Ta  Ta303     1.0  0.13033  0.99597  0.37751  1.0000
  Ta  Ta304     1.0  0.11929  0.04321  0.24473  1.0000
  Ta  Ta305     1.0  0.21404  0.01683  0.19811  1.0000
  Ta  Ta306     1.0  0.24430  0.10600  0.31731  1.0000
  Ta  Ta307     1.0  0.30160  0.92280  0.29429  1.0000
  Ta  Ta308     1.0  0.30931  0.07746  0.28711  1.0000
  Ta  Ta309     1.0  0.40267  0.04397  0.30569  1.0000
  Ta  Ta310     1.0  0.38443  0.11863  0.31075  1.0000
  Ta  Ta311     1.0  0.46786  0.06806  0.31156  1.0000
  Ta  Ta312     1.0  0.57030  0.12094  0.36091  1.0000
  Ta  Ta313     1.0  0.57086  0.02862  0.32736  1.0000
  Ta  Ta314     1.0  0.64587  0.09394  0.37748  1.0000
  Ta  Ta315     1.0  0.70282  0.05269  0.23442  1.0000
  Ta  Ta316     1.0  0.71095  0.96862  0.37547  1.0000
  Ta  Ta317     1.0  0.76750  0.02663  0.30633  1.0000
  Ta  Ta318     1.0  0.70009  0.01845  0.44963  1.0000
  Ta  Ta319     1.0  0.85580  0.99476  0.29175  1.0000
  Ta  Ta320     1.0  0.98302  0.95988  0.41354  1.0000
  Ta  Ta321     1.0  0.04218  0.13585  0.29904  1.0000
  Ta  Ta322     1.0  0.02356  0.22386  0.27852  1.0000
  Ta  Ta323     1.0  0.10085  0.07672  0.33403  1.0000
  Ta  Ta324     1.0  0.11810  0.17529  0.32173  1.0000
  Ta  Ta325     1.0  0.25361  0.08374  0.23213  1.0000
  Ta  Ta326     1.0  0.27442  0.18478  0.33092  1.0000
  Ta  Ta327     1.0  0.33641  0.17072  0.26192  1.0000
  Ta  Ta328     1.0  0.31373  0.13299  0.36202  1.0000
  Ta  Ta329     1.0  0.42812  0.19155  0.26905  1.0000
  Ta  Ta330     1.0  0.36172  0.19305  0.33046  1.0000
  Ta  Ta331     1.0  0.50908  0.11187  0.25504  1.0000
  Ta  Ta332     1.0  0.51827  0.15311  0.33084  1.0000
  Ta  Ta333     1.0  0.60288  0.11851  0.29056  1.0000
  Ta  Ta334     1.0  0.68125  0.13923  0.31460  1.0000
  Ta  Ta335     1.0  0.73489  0.12897  0.35998  1.0000
  Ta  Ta336     1.0  0.77786  0.19527  0.35067  1.0000
  Ta  Ta337     1.0  0.81148  0.09745  0.33633  1.0000
  Ta  Ta338     1.0  0.89336  0.11240  0.33350  1.0000
  Ta  Ta339     1.0  0.84138  0.06823  0.26917  1.0000
  Ta  Ta340     1.0  0.92732  0.13545  0.40474  1.0000
  Ta  Ta341     1.0  0.06635  0.30067  0.28490  1.0000
  Ta  Ta342     1.0  0.07063  0.24581  0.35706  1.0000
  Ta  Ta343     1.0  0.10698  0.23453  0.26844  1.0000
  Ta  Ta344     1.0  0.15219  0.20100  0.38817  1.0000
  Ta  Ta345     1.0  0.21226  0.21896  0.22778  1.0000
  Ta  Ta346     1.0  0.19513  0.18085  0.30568  1.0000
  Ta  Ta347     1.0  0.31209  0.24528  0.37343  1.0000
  Ta  Ta348     1.0  0.35400  0.30761  0.33459  1.0000
  Ta  Ta349     1.0  0.37595  0.23691  0.23502  1.0000
  Ta  Ta350     1.0  0.44518  0.28549  0.27266  1.0000
  Ta  Ta351     1.0  0.51053  0.21020  0.23462  1.0000
  Ta  Ta352     1.0  0.54239  0.27584  0.29945  1.0000
  Ta  Ta353     1.0  0.57846  0.25369  0.22016  1.0000
  Ta  Ta354     1.0  0.61622  0.25677  0.29610  1.0000
  Ta  Ta355     1.0  0.74167  0.26807  0.34144  1.0000
  Ta  Ta356     1.0  0.69774  0.30368  0.41385  1.0000
  Ta  Ta357     1.0  0.85215  0.20931  0.23459  1.0000
  Ta  Ta358     1.0  0.82583  0.26743  0.31699  1.0000
  Ta  Ta359     1.0  0.88023  0.21444  0.32149  1.0000
  Ta  Ta360     1.0  0.99867  0.26548  0.34280  1.0000
  Ta  Ta361     1.0  0.11632  0.32605  0.32727  1.0000
  Ta  Ta362     1.0  0.11284  0.39214  0.36008  1.0000
  Ta  Ta363     1.0  0.15894  0.26125  0.32270  1.0000
  Ta  Ta364     1.0  0.18326  0.35240  0.35420  1.0000
  Ta  Ta365     1.0  0.16779  0.27829  0.40382  1.0000
  Ta  Ta366     1.0  0.24912  0.32745  0.37853  1.0000
  Ta  Ta367     1.0  0.28364  0.39702  0.29961  1.0000
  Ta  Ta368     1.0  0.27614  0.33288  0.29284  1.0000
  Ta  Ta369     1.0  0.31969  0.29704  0.21921  1.0000
  Ta  Ta370     1.0  0.39946  0.31588  0.20687  1.0000
  Ta  Ta371     1.0  0.47815  0.31788  0.21078  1.0000
  Ta  Ta372     1.0  0.49162  0.36008  0.29941  1.0000
  Ta  Ta373     1.0  0.63283  0.33020  0.27006  1.0000
  Ta  Ta374     1.0  0.66466  0.37247  0.42450  1.0000
  Ta  Ta375     1.0  0.68812  0.35434  0.32036  1.0000
  Ta  Ta376     1.0  0.79477  0.34179  0.36591  1.0000
  Ta  Ta377     1.0  0.88832  0.28155  0.25944  1.0000
  Ta  Ta378     1.0  0.88253  0.34569  0.36506  1.0000
  Ta  Ta379     1.0  0.98526  0.32366  0.29649  1.0000
  Ta  Ta380     1.0  0.96508  0.34769  0.36446  1.0000
  Ta  Ta381     1.0  0.99995  0.41436  0.41307  1.0000
  Ta  Ta382     1.0  0.05974  0.48720  0.41900  1.0000
  Ta  Ta383     1.0  0.15348  0.40208  0.26360  1.0000
  Ta  Ta384     1.0  0.11644  0.47005  0.37089  1.0000
  Ta  Ta385     1.0  0.23073  0.41629  0.24000  1.0000
  Ta  Ta386     1.0  0.18594  0.43338  0.33524  1.0000
  Ta  Ta387     1.0  0.24434  0.47309  0.28764  1.0000
  Ta  Ta388     1.0  0.41429  0.43087  0.34881  1.0000
  Ta  Ta389     1.0  0.33917  0.43482  0.25369  1.0000
  Ta  Ta390     1.0  0.41930  0.35162  0.31454  1.0000
  Ta  Ta391     1.0  0.42236  0.39567  0.25431  1.0000
  Ta  Ta392     1.0  0.47094  0.46275  0.31281  1.0000
  Ta  Ta393     1.0  0.55759  0.34867  0.27103  1.0000
  Ta  Ta394     1.0  0.60891  0.38618  0.31903  1.0000
  Ta  Ta395     1.0  0.75912  0.39728  0.30914  1.0000
  Ta  Ta396     1.0  0.84027  0.42030  0.34254  1.0000
  Ta  Ta397     1.0  0.79091  0.48413  0.33311  1.0000
  Ta  Ta398     1.0  0.92412  0.43756  0.37141  1.0000
  Ta  Ta399     1.0  0.98839  0.39870  0.31931  1.0000
  Ta  Ta400     1.0  0.00708  0.48548  0.35148  1.0000
  Ta  Ta401     1.0  0.89710  0.99342  0.45079  1.0000
  Ta  Ta402     1.0  0.03703  0.00314  0.44079  1.0000
  Ta  Ta403     1.0  0.14600  0.90704  0.36545  1.0000
  Ta  Ta404     1.0  0.16955  0.03778  0.31027  1.0000
  Ta  Ta405     1.0  0.21589  0.97301  0.37765  1.0000
  Ta  Ta406     1.0  0.23248  0.06903  0.44615  1.0000
  Ta  Ta407     1.0  0.28124  0.94476  0.36464  1.0000
  Ta  Ta408     1.0  0.36900  0.03551  0.49765  1.0000
  Ta  Ta409     1.0  0.35194  0.04813  0.38140  1.0000
  Ta  Ta410     1.0  0.47817  0.03702  0.45539  1.0000
  Ta  Ta411     1.0  0.48920  0.98042  0.38912  1.0000
  Ta  Ta412     1.0  0.52274  0.10029  0.46514  1.0000
  Ta  Ta413     1.0  0.50549  0.97637  0.31777  1.0000
  Ta  Ta414     1.0  0.55019  0.04384  0.39100  1.0000
  Ta  Ta415     1.0  0.63652  0.00628  0.38391  1.0000
  Ta  Ta416     1.0  0.76460  0.06609  0.47463  1.0000
  Ta  Ta417     1.0  0.69412  0.10662  0.45024  1.0000
  Ta  Ta418     1.0  0.77973  0.02849  0.38568  1.0000
  Ta  Ta419     1.0  0.86543  0.06317  0.38447  1.0000
  Ta  Ta420     1.0  0.95930  0.03463  0.39328  1.0000
  Ta  Ta421     1.0  0.03730  0.08790  0.37248  1.0000
  Ta  Ta422     1.0  0.00120  0.13387  0.42755  1.0000
  Ta  Ta423     1.0  0.09886  0.06859  0.42821  1.0000
  Ta  Ta424     1.0  0.16744  0.11431  0.35441  1.0000
  Ta  Ta425     1.0  0.18214  0.11539  0.25890  1.0000
  Ta  Ta426     1.0  0.17769  0.05727  0.40753  1.0000
  Ta  Ta427     1.0  0.26640  0.05752  0.38247  1.0000
  Ta  Ta428     1.0  0.39433  0.15110  0.41071  1.0000
  Ta  Ta429     1.0  0.41335  0.07295  0.43750  1.0000
  Ta  Ta430     1.0  0.44233  0.15372  0.34938  1.0000
  Ta  Ta431     1.0  0.48141  0.09249  0.38118  1.0000
  Ta  Ta432     1.0  0.50499  0.15754  0.40944  1.0000
  Ta  Ta433     1.0  0.61447  0.19421  0.35650  1.0000
  Ta  Ta434     1.0  0.65811  0.19042  0.49269  1.0000
  Ta  Ta435     1.0  0.65903  0.16342  0.41487  1.0000
  Ta  Ta436     1.0  0.74668  0.14109  0.49119  1.0000
  Ta  Ta437     1.0  0.71299  0.05014  0.35673  1.0000
  Ta  Ta438     1.0  0.89866  0.07389  0.46714  1.0000
  Ta  Ta439     1.0  0.85056  0.17845  0.39919  1.0000
  Ta  Ta440     1.0  0.91244  0.16432  0.48562  1.0000
  Ta  Ta441     1.0  0.02504  0.18970  0.37986  1.0000
  Ta  Ta442     1.0  0.05507  0.20433  0.46922  1.0000
  Ta  Ta443     1.0  0.08893  0.14917  0.39712  1.0000
  Ta  Ta444     1.0  0.13998  0.20120  0.46770  1.0000
  Ta  Ta445     1.0  0.21503  0.21233  0.43218  1.0000
  Ta  Ta446     1.0  0.31008  0.31707  0.59093  1.0000
  Ta  Ta447     1.0  0.24704  0.12890  0.39906  1.0000
  Ta  Ta448     1.0  0.28848  0.33476  0.51332  1.0000
  Ta  Ta449     1.0  0.36030  0.21468  0.44586  1.0000
  Ta  Ta450     1.0  0.40128  0.24309  0.37629  1.0000
  Ta  Ta451     1.0  0.47022  0.22717  0.31886  1.0000
  Ta  Ta452     1.0  0.55904  0.25339  0.37385  1.0000
  Ta  Ta453     1.0  0.57694  0.19169  0.28689  1.0000
  Ta  Ta454     1.0  0.64715  0.24461  0.42065  1.0000
  Ta  Ta455     1.0  0.69024  0.21499  0.34372  1.0000
  Ta  Ta456     1.0  0.73168  0.18718  0.41376  1.0000
  Ta  Ta457     1.0  0.80198  0.11525  0.40994  1.0000
  Ta  Ta458     1.0  0.84535  0.27738  0.39042  1.0000
  Ta  Ta459     1.0  0.93122  0.21248  0.39797  1.0000
  Ta  Ta460     1.0  0.91878  0.29239  0.41882  1.0000
  Ta  Ta461     1.0  0.02379  0.34932  0.46806  1.0000
  Ta  Ta462     1.0  0.00738  0.27901  0.41395  1.0000
  Ta  Ta463     1.0  0.08408  0.26923  0.44263  1.0000
  Ta  Ta464     1.0  0.12871  0.35150  0.42595  1.0000
  Ta  Ta465     1.0  0.22601  0.33540  0.44509  1.0000
  Ta  Ta466     1.0  0.25179  0.41068  0.49705  1.0000
  Ta  Ta467     1.0  0.28372  0.26202  0.45388  1.0000
  Ta  Ta468     1.0  0.37357  0.32876  0.50366  1.0000
  Ta  Ta469     1.0  0.31973  0.31464  0.41628  1.0000
  Ta  Ta470     1.0  0.41469  0.28216  0.45643  1.0000
  Ta  Ta471     1.0  0.51546  0.30501  0.42354  1.0000
  Ta  Ta472     1.0  0.55472  0.34531  0.36134  1.0000
  Ta  Ta473     1.0  0.62180  0.31911  0.35674  1.0000
  Ta  Ta474     1.0  0.62924  0.41033  0.47351  1.0000
  Ta  Ta475     1.0  0.65192  0.29445  0.48731  1.0000
  Ta  Ta476     1.0  0.72233  0.33735  0.47434  1.0000
  Ta  Ta477     1.0  0.77859  0.26806  0.42184  1.0000
  Ta  Ta478     1.0  0.79391  0.36733  0.44928  1.0000
  Ta  Ta479     1.0  0.92290  0.28839  0.33891  1.0000
  Ta  Ta480     1.0  0.93063  0.39150  0.44511  1.0000
  Ta  Ta481     1.0  0.02936  0.45992  0.48750  1.0000
  Ta  Ta482     1.0  0.14512  0.46429  0.56567  1.0000
  Ta  Ta483     1.0  0.08764  0.41348  0.44656  1.0000
  Ta  Ta484     1.0  0.16551  0.41346  0.49909  1.0000
  Ta  Ta485     1.0  0.20470  0.40584  0.41781  1.0000
  Ta  Ta486     1.0  0.31477  0.45848  0.32651  1.0000
  Ta  Ta487     1.0  0.34975  0.38817  0.36539  1.0000
  Ta  Ta488     1.0  0.33780  0.38551  0.47207  1.0000
  Ta  Ta489     1.0  0.39131  0.32297  0.39480  1.0000
  Ta  Ta490     1.0  0.44099  0.46447  0.44560  1.0000
  Ta  Ta491     1.0  0.47251  0.29442  0.35357  1.0000
  Ta  Ta492     1.0  0.53277  0.36116  0.54496  1.0000
  Ta  Ta493     1.0  0.59428  0.41296  0.39795  1.0000
  Ta  Ta494     1.0  0.67392  0.46160  0.42703  1.0000
  Ta  Ta495     1.0  0.73365  0.36953  0.39021  1.0000
  Ta  Ta496     1.0  0.76922  0.43024  0.40620  1.0000
  Ta  Ta497     1.0  0.85799  0.41616  0.42567  1.0000
  Ta  Ta498     1.0  0.91704  0.52140  0.45578  1.0000
  Ta  Ta499     1.0  0.98302  0.49729  0.43305  1.0000
  Ta  Ta500     1.0  0.92170  0.45141  0.49911  1.0000
  Ta  Ta501     1.0  0.96851  0.00031  0.47762  1.0000
  Ta  Ta502     1.0  0.01781  0.02156  0.53717  1.0000
  Ta  Ta503     1.0  0.11275  0.00226  0.47050  1.0000
  Ta  Ta504     1.0  0.15731  0.15154  0.54904  1.0000
  Ta  Ta505     1.0  0.15059  0.03227  0.56688  1.0000
  Ta  Ta506     1.0  0.21574  0.11495  0.58003  1.0000
  Ta  Ta507     1.0  0.35535  0.00605  0.56460  1.0000
  Ta  Ta508     1.0  0.30282  0.11033  0.55202  1.0000
  Ta  Ta509     1.0  0.42460  0.96799  0.53517  1.0000
  Ta  Ta510     1.0  0.44520  0.05404  0.52870  1.0000
  Ta  Ta511     1.0  0.50666  0.96947  0.50260  1.0000
  Ta  Ta512     1.0  0.54239  0.10712  0.53441  1.0000
  Ta  Ta513     1.0  0.62048  0.02596  0.48315  1.0000
  Ta  Ta514     1.0  0.63134  0.12106  0.50168  1.0000
  Ta  Ta515     1.0  0.68578  0.99690  0.59144  1.0000
  Ta  Ta516     1.0  0.74833  0.09397  0.55386  1.0000
  Ta  Ta517     1.0  0.74093  0.99765  0.51951  1.0000
  Ta  Ta518     1.0  0.81650  0.03886  0.54786  1.0000
  Ta  Ta519     1.0  0.88663  0.97633  0.53831  1.0000
  Ta  Ta520     1.0  0.93874  0.03363  0.53733  1.0000
  Ta  Ta521     1.0  0.98076  0.08951  0.48118  1.0000
  Ta  Ta522     1.0  0.99881  0.16755  0.52303  1.0000
  Ta  Ta523     1.0  0.06806  0.06368  0.49128  1.0000
  Ta  Ta524     1.0  0.17534  0.13032  0.44176  1.0000
  Ta  Ta525     1.0  0.15587  0.08407  0.50274  1.0000
  Ta  Ta526     1.0  0.23680  0.13579  0.49180  1.0000
  Ta  Ta527     1.0  0.32871  0.10146  0.44521  1.0000
  Ta  Ta528     1.0  0.42361  0.22131  0.50318  1.0000
  Ta  Ta529     1.0  0.44504  0.13502  0.46732  1.0000
  Ta  Ta530     1.0  0.44491  0.14205  0.54907  1.0000
  Ta  Ta531     1.0  0.50557  0.18266  0.49080  1.0000
  Ta  Ta532     1.0  0.57763  0.16988  0.45925  1.0000
  Ta  Ta533     1.0  0.59302  0.09460  0.43458  1.0000
  Ta  Ta534     1.0  0.58460  0.17488  0.53182  1.0000
  Ta  Ta535     1.0  0.62430  0.10832  0.58461  1.0000
  Ta  Ta536     1.0  0.81724  0.12345  0.57172  1.0000
  Ta  Ta537     1.0  0.84360  0.12461  0.47587  1.0000
  Ta  Ta538     1.0  0.83079  0.25994  0.53929  1.0000
  Ta  Ta539     1.0  0.90203  0.10119  0.54803  1.0000
  Ta  Ta540     1.0  0.87023  0.18331  0.54239  1.0000
  Ta  Ta541     1.0  0.97928  0.21417  0.46043  1.0000
  Ta  Ta542     1.0  0.99461  0.24336  0.54599  1.0000
  Ta  Ta543     1.0  0.09880  0.14697  0.51155  1.0000
  Ta  Ta544     1.0  0.06682  0.26066  0.59502  1.0000
  Ta  Ta545     1.0  0.22796  0.24041  0.50818  1.0000
  Ta  Ta546     1.0  0.16532  0.28248  0.66502  1.0000
  Ta  Ta547     1.0  0.28925  0.18259  0.43464  1.0000
  Ta  Ta548     1.0  0.32585  0.27005  0.50992  1.0000
  Ta  Ta549     1.0  0.45750  0.21378  0.41538  1.0000
  Ta  Ta550     1.0  0.48160  0.28392  0.50428  1.0000
  Ta  Ta551     1.0  0.55225  0.24063  0.46625  1.0000
  Ta  Ta552     1.0  0.59513  0.26363  0.52334  1.0000
  Ta  Ta553     1.0  0.68092  0.24392  0.54783  1.0000
  Ta  Ta554     1.0  0.70873  0.25275  0.61740  1.0000
  Ta  Ta555     1.0  0.71547  0.24618  0.47056  1.0000
  Ta  Ta556     1.0  0.76107  0.29417  0.59741  1.0000
  Ta  Ta557     1.0  0.80199  0.18969  0.47430  1.0000
  Ta  Ta558     1.0  0.85404  0.30921  0.47046  1.0000
  Ta  Ta559     1.0  0.86468  0.23495  0.46431  1.0000
  Ta  Ta560     1.0  0.90713  0.23868  0.61345  1.0000
  Ta  Ta561     1.0  0.04439  0.29077  0.50559  1.0000
  Ta  Ta562     1.0  0.12081  0.33409  0.51411  1.0000
  Ta  Ta563     1.0  0.10240  0.23859  0.52903  1.0000
  Ta  Ta564     1.0  0.11748  0.30726  0.59761  1.0000
  Ta  Ta565     1.0  0.16784  0.28095  0.48458  1.0000
  Ta  Ta566     1.0  0.25350  0.38301  0.58947  1.0000
  Ta  Ta567     1.0  0.33595  0.35571  0.65640  1.0000
  Ta  Ta568     1.0  0.41014  0.34409  0.60573  1.0000
  Ta  Ta569     1.0  0.38198  0.28545  0.56293  1.0000
  Ta  Ta570     1.0  0.45863  0.40702  0.51613  1.0000
  Ta  Ta571     1.0  0.45291  0.33936  0.53661  1.0000
  Ta  Ta572     1.0  0.57115  0.31043  0.58325  1.0000
  Ta  Ta573     1.0  0.58820  0.32968  0.44372  1.0000
  Ta  Ta574     1.0  0.61300  0.36310  0.53331  1.0000
  Ta  Ta575     1.0  0.69508  0.31901  0.55499  1.0000
  Ta  Ta576     1.0  0.75348  0.36981  0.53557  1.0000
  Ta  Ta577     1.0  0.76846  0.28654  0.51305  1.0000
  Ta  Ta578     1.0  0.83546  0.34306  0.55021  1.0000
  Ta  Ta579     1.0  0.96409  0.30888  0.48027  1.0000
  Ta  Ta580     1.0  0.98950  0.39695  0.51799  1.0000
  Ta  Ta581     1.0  0.07540  0.41421  0.52940  1.0000
  Ta  Ta582     1.0  0.13168  0.41707  0.62305  1.0000
  Ta  Ta583     1.0  0.14948  0.37873  0.56541  1.0000
  Ta  Ta584     1.0  0.21293  0.45779  0.55117  1.0000
  Ta  Ta585     1.0  0.20301  0.33293  0.53383  1.0000
  Ta  Ta586     1.0  0.27392  0.50041  0.62836  1.0000
  Ta  Ta587     1.0  0.35476  0.40099  0.58447  1.0000
  Ta  Ta588     1.0  0.30987  0.52860  0.52980  1.0000
  Ta  Ta589     1.0  0.43955  0.35603  0.45778  1.0000
  Ta  Ta590     1.0  0.38588  0.43479  0.51076  1.0000
  Ta  Ta591     1.0  0.54313  0.42568  0.49628  1.0000
  Ta  Ta592     1.0  0.51266  0.43387  0.59212  1.0000
  Ta  Ta593     1.0  0.60559  0.43968  0.54173  1.0000
  Ta  Ta594     1.0  0.68052  0.50308  0.51568  1.0000
  Ta  Ta595     1.0  0.68646  0.39739  0.52470  1.0000
  Ta  Ta596     1.0  0.72635  0.44305  0.48217  1.0000
  Ta  Ta597     1.0  0.81141  0.42031  0.51635  1.0000
  Ta  Ta598     1.0  0.85565  0.46887  0.48306  1.0000
  Ta  Ta599     1.0  0.89091  0.38223  0.50416  1.0000
  Ta  Ta600     1.0  0.95770  0.47706  0.58877  1.0000
  Ta  Ta601     1.0  0.01872  0.95726  0.60257  1.0000
  Ta  Ta602     1.0  0.99760  0.09714  0.55243  1.0000
  Ta  Ta603     1.0  0.20602  0.96721  0.58665  1.0000
  Ta  Ta604     1.0  0.08656  0.08180  0.57074  1.0000
  Ta  Ta605     1.0  0.22156  0.04684  0.54539  1.0000
  Ta  Ta606     1.0  0.27670  0.16279  0.62122  1.0000
  Ta  Ta607     1.0  0.29927  0.05283  0.59546  1.0000
  Ta  Ta608     1.0  0.33758  0.11410  0.64070  1.0000
  Ta  Ta609     1.0  0.38270  0.08365  0.58465  1.0000
  Ta  Ta610     1.0  0.44116  0.00300  0.62911  1.0000
  Ta  Ta611     1.0  0.54351  0.04252  0.51447  1.0000
  Ta  Ta612     1.0  0.47132  0.07727  0.59655  1.0000
  Ta  Ta613     1.0  0.63624  0.96567  0.65024  1.0000
  Ta  Ta614     1.0  0.66561  0.04176  0.73281  1.0000
  Ta  Ta615     1.0  0.71430  0.00628  0.66553  1.0000
  Ta  Ta616     1.0  0.77375  0.03883  0.61861  1.0000
  Ta  Ta617     1.0  0.76421  0.96580  0.59028  1.0000
  Ta  Ta618     1.0  0.80496  0.01749  0.67998  1.0000
  Ta  Ta619     1.0  0.85524  0.96271  0.60493  1.0000
  Ta  Ta620     1.0  0.94574  0.00747  0.62104  1.0000
  Ta  Ta621     1.0  0.96373  0.10007  0.62169  1.0000
  Ta  Ta622     1.0  0.07025  0.11070  0.65743  1.0000
  Ta  Ta623     1.0  0.05716  0.15883  0.58135  1.0000
  Ta  Ta624     1.0  0.10882  0.19578  0.63156  1.0000
  Ta  Ta625     1.0  0.14128  0.11140  0.62180  1.0000
  Ta  Ta626     1.0  0.22543  0.19641  0.57300  1.0000
  Ta  Ta627     1.0  0.30825  0.18452  0.51939  1.0000
  Ta  Ta628     1.0  0.35538  0.18073  0.58073  1.0000
  Ta  Ta629     1.0  0.37398  0.13466  0.49744  1.0000
  Ta  Ta630     1.0  0.42962  0.13340  0.63048  1.0000
  Ta  Ta631     1.0  0.51668  0.15621  0.58717  1.0000
  Ta  Ta632     1.0  0.49194  0.08796  0.67264  1.0000
  Ta  Ta633     1.0  0.62409  0.10263  0.69166  1.0000
  Ta  Ta634     1.0  0.70641  0.13711  0.70068  1.0000
  Ta  Ta635     1.0  0.67824  0.06813  0.64559  1.0000
  Ta  Ta636     1.0  0.75163  0.11806  0.63166  1.0000
  Ta  Ta637     1.0  0.82563  0.10498  0.64912  1.0000
  Ta  Ta638     1.0  0.89727  0.07436  0.66601  1.0000
  Ta  Ta639     1.0  0.86031  0.04488  0.60877  1.0000
  Ta  Ta640     1.0  0.00320  0.10687  0.70454  1.0000
  Ta  Ta641     1.0  0.96265  0.17225  0.58614  1.0000
  Ta  Ta642     1.0  0.05302  0.16490  0.71996  1.0000
  Ta  Ta643     1.0  0.01697  0.20695  0.65543  1.0000
  Ta  Ta644     1.0  0.24889  0.21867  0.66078  1.0000
  Ta  Ta645     1.0  0.17024  0.25632  0.58065  1.0000
  Ta  Ta646     1.0  0.23526  0.30720  0.60817  1.0000
  Ta  Ta647     1.0  0.27413  0.25358  0.57669  1.0000
  Ta  Ta648     1.0  0.34303  0.26169  0.63378  1.0000
  Ta  Ta649     1.0  0.45931  0.20940  0.57261  1.0000
  Ta  Ta650     1.0  0.47928  0.18979  0.65587  1.0000
  Ta  Ta651     1.0  0.52694  0.25227  0.56124  1.0000
  Ta  Ta652     1.0  0.57388  0.20520  0.67595  1.0000
  Ta  Ta653     1.0  0.54664  0.08828  0.61253  1.0000
  Ta  Ta654     1.0  0.64809  0.16551  0.63631  1.0000
  Ta  Ta655     1.0  0.68643  0.15194  0.55581  1.0000
  Ta  Ta656     1.0  0.75896  0.20299  0.62918  1.0000
  Ta  Ta657     1.0  0.75688  0.19939  0.54543  1.0000
  Ta  Ta658     1.0  0.82147  0.20119  0.60205  1.0000
  Ta  Ta659     1.0  0.88400  0.13894  0.60954  1.0000
  Ta  Ta660     1.0  0.95203  0.15217  0.67162  1.0000
  Ta  Ta661     1.0  0.91816  0.24665  0.51945  1.0000
  Ta  Ta662     1.0  0.01934  0.33520  0.55963  1.0000
  Ta  Ta663     1.0  0.97503  0.27036  0.62722  1.0000
  Ta  Ta664     1.0  0.19078  0.38972  0.73467  1.0000
  Ta  Ta665     1.0  0.21970  0.27945  0.70877  1.0000
  Ta  Ta666     1.0  0.24296  0.44054  0.71502  1.0000
  Ta  Ta667     1.0  0.24174  0.37030  0.67507  1.0000
  Ta  Ta668     1.0  0.43886  0.42921  0.58168  1.0000
  Ta  Ta669     1.0  0.45338  0.27494  0.60120  1.0000
  Ta  Ta670     1.0  0.50289  0.34469  0.61494  1.0000
  Ta  Ta671     1.0  0.52833  0.26847  0.65640  1.0000
  Ta  Ta672     1.0  0.58282  0.32134  0.66619  1.0000
  Ta  Ta673     1.0  0.61557  0.22765  0.59734  1.0000
  Ta  Ta674     1.0  0.64519  0.31933  0.61281  1.0000
  Ta  Ta675     1.0  0.71187  0.36483  0.63315  1.0000
  Ta  Ta676     1.0  0.79057  0.31980  0.71768  1.0000
  Ta  Ta677     1.0  0.84253  0.28093  0.61263  1.0000
  Ta  Ta678     1.0  0.92859  0.39343  0.57529  1.0000
  Ta  Ta679     1.0  0.92133  0.30609  0.57821  1.0000
  Ta  Ta680     1.0  0.95271  0.36093  0.64930  1.0000
  Ta  Ta681     1.0  0.00530  0.41018  0.60482  1.0000
  Ta  Ta682     1.0  0.00150  0.51527  0.63600  1.0000
  Ta  Ta683     1.0  0.07521  0.37910  0.60650  1.0000
  Ta  Ta684     1.0  0.10579  0.50140  0.75204  1.0000
  Ta  Ta685     1.0  0.18004  0.34894  0.62703  1.0000
  Ta  Ta686     1.0  0.29548  0.41796  0.64347  1.0000
  Ta  Ta687     1.0  0.21299  0.43563  0.63932  1.0000
  Ta  Ta688     1.0  0.35238  0.52964  0.66135  1.0000
  Ta  Ta689     1.0  0.34717  0.47812  0.59771  1.0000
  Ta  Ta690     1.0  0.41937  0.48961  0.61752  1.0000
  Ta  Ta691     1.0  0.48489  0.48250  0.53234  1.0000
  Ta  Ta692     1.0  0.56828  0.46681  0.63436  1.0000
  Ta  Ta693     1.0  0.58269  0.38278  0.62095  1.0000
  Ta  Ta694     1.0  0.64347  0.46947  0.66310  1.0000
  Ta  Ta695     1.0  0.65043  0.41869  0.60396  1.0000
  Ta  Ta696     1.0  0.76667  0.39762  0.68273  1.0000
  Ta  Ta697     1.0  0.79328  0.37615  0.61220  1.0000
  Ta  Ta698     1.0  0.83343  0.43025  0.66373  1.0000
  Ta  Ta699     1.0  0.86801  0.44767  0.57205  1.0000
  Ta  Ta700     1.0  0.91254  0.43980  0.64948  1.0000
  Ta  Ta701     1.0  0.98427  0.95852  0.74646  1.0000
  Ta  Ta702     1.0  0.08329  0.02648  0.69659  1.0000
  Ta  Ta703     1.0  0.08544  0.00387  0.61347  1.0000
  Ta  Ta704     1.0  0.19888  0.09969  0.73386  1.0000
  Ta  Ta705     1.0  0.17193  0.03122  0.63492  1.0000
  Ta  Ta706     1.0  0.21984  0.09223  0.66429  1.0000
  Ta  Ta707     1.0  0.31536  0.00495  0.70597  1.0000
  Ta  Ta708     1.0  0.34762  0.08585  0.70724  1.0000
  Ta  Ta709     1.0  0.36628  0.02054  0.64608  1.0000
  Ta  Ta710     1.0  0.41616  0.06389  0.67327  1.0000
  Ta  Ta711     1.0  0.52819  0.95413  0.76406  1.0000
  Ta  Ta712     1.0  0.56445  0.05847  0.72952  1.0000
  Ta  Ta713     1.0  0.59105  0.99568  0.71859  1.0000
  Ta  Ta714     1.0  0.60942  0.11047  0.77145  1.0000
  Ta  Ta715     1.0  0.68014  0.94969  0.71526  1.0000
  Ta  Ta716     1.0  0.76296  0.95893  0.73499  1.0000
  Ta  Ta717     1.0  0.79817  0.95028  0.65299  1.0000
  Ta  Ta718     1.0  0.83048  0.98903  0.79481  1.0000
  Ta  Ta719     1.0  0.89767  0.99584  0.68077  1.0000
  Ta  Ta720     1.0  0.90209  0.03024  0.83977  1.0000
  Ta  Ta721     1.0  0.02361  0.04556  0.64409  1.0000
  Ta  Ta722     1.0  0.06177  0.08763  0.75704  1.0000
  Ta  Ta723     1.0  0.12876  0.12508  0.70669  1.0000
  Ta  Ta724     1.0  0.12348  0.21682  0.70147  1.0000
  Ta  Ta725     1.0  0.18838  0.17082  0.64961  1.0000
  Ta  Ta726     1.0  0.21186  0.16380  0.79384  1.0000
  Ta  Ta727     1.0  0.26576  0.13629  0.72134  1.0000
  Ta  Ta728     1.0  0.34262  0.13917  0.76810  1.0000
  Ta  Ta729     1.0  0.40792  0.14222  0.69989  1.0000
  Ta  Ta730     1.0  0.40476  0.22673  0.63577  1.0000
  Ta  Ta731     1.0  0.48880  0.01938  0.73914  1.0000
  Ta  Ta732     1.0  0.55710  0.13788  0.70590  1.0000
  Ta  Ta733     1.0  0.59248  0.04017  0.64922  1.0000
  Ta  Ta734     1.0  0.70678  0.18520  0.78112  1.0000
  Ta  Ta735     1.0  0.74353  0.02549  0.75682  1.0000
  Ta  Ta736     1.0  0.75660  0.13649  0.76853  1.0000
  Ta  Ta737     1.0  0.74507  0.07280  0.69569  1.0000
  Ta  Ta738     1.0  0.83114  0.08308  0.73207  1.0000
  Ta  Ta739     1.0  0.89251  0.04263  0.76954  1.0000
  Ta  Ta740     1.0  0.92695  0.11957  0.73869  1.0000
  Ta  Ta741     1.0  0.12294  0.14978  0.78272  1.0000
  Ta  Ta742     1.0  0.99548  0.26547  0.72190  1.0000
  Ta  Ta743     1.0  0.07062  0.26378  0.68161  1.0000
  Ta  Ta744     1.0  0.14880  0.29201  0.74101  1.0000
  Ta  Ta745     1.0  0.25714  0.21388  0.74125  1.0000
  Ta  Ta746     1.0  0.37697  0.36673  0.73160  1.0000
  Ta  Ta747     1.0  0.32383  0.24908  0.72503  1.0000
  Ta  Ta748     1.0  0.38095  0.29620  0.68261  1.0000
  Ta  Ta749     1.0  0.33735  0.19081  0.68478  1.0000
  Ta  Ta750     1.0  0.45736  0.24333  0.80507  1.0000
  Ta  Ta751     1.0  0.48594  0.17048  0.73417  1.0000
  Ta  Ta752     1.0  0.52091  0.25523  0.73124  1.0000
  Ta  Ta753     1.0  0.63703  0.19395  0.74401  1.0000
  Ta  Ta754     1.0  0.68014  0.26805  0.76268  1.0000
  Ta  Ta755     1.0  0.71920  0.21839  0.69827  1.0000
  Ta  Ta756     1.0  0.78712  0.25577  0.68480  1.0000
  Ta  Ta757     1.0  0.79081  0.17435  0.72060  1.0000
  Ta  Ta758     1.0  0.85463  0.20628  0.76206  1.0000
  Ta  Ta759     1.0  0.86544  0.14948  0.69900  1.0000
  Ta  Ta760     1.0  0.93021  0.22602  0.70258  1.0000
  Ta  Ta761     1.0  0.90644  0.29037  0.67930  1.0000
  Ta  Ta762     1.0  0.03467  0.32379  0.64338  1.0000
  Ta  Ta763     1.0  0.11804  0.35028  0.68415  1.0000
  Ta  Ta764     1.0  0.19092  0.33688  0.78842  1.0000
  Ta  Ta765     1.0  0.28706  0.29650  0.66601  1.0000
  Ta  Ta766     1.0  0.33313  0.45082  0.73880  1.0000
  Ta  Ta767     1.0  0.30854  0.37768  0.72178  1.0000
  Ta  Ta768     1.0  0.43465  0.38181  0.67720  1.0000
  Ta  Ta769     1.0  0.45279  0.29390  0.66875  1.0000
  Ta  Ta770     1.0  0.45809  0.38580  0.75963  1.0000
  Ta  Ta771     1.0  0.51128  0.35960  0.70754  1.0000
  Ta  Ta772     1.0  0.56471  0.32795  0.75758  1.0000
  Ta  Ta773     1.0  0.63878  0.25599  0.67541  1.0000
  Ta  Ta774     1.0  0.63769  0.36149  0.75973  1.0000
  Ta  Ta775     1.0  0.71233  0.30542  0.69792  1.0000
  Ta  Ta776     1.0  0.73536  0.35840  0.75297  1.0000
  Ta  Ta777     1.0  0.85823  0.35685  0.63867  1.0000
  Ta  Ta778     1.0  0.85653  0.29240  0.74431  1.0000
  Ta  Ta779     1.0  0.85655  0.21635  0.68157  1.0000
  Ta  Ta780     1.0  0.95868  0.33024  0.73128  1.0000
  Ta  Ta781     1.0  0.99647  0.43774  0.67605  1.0000
  Ta  Ta782     1.0  0.02529  0.46285  0.76238  1.0000
  Ta  Ta783     1.0  0.07399  0.47311  0.67593  1.0000
  Ta  Ta784     1.0  0.06616  0.40894  0.72636  1.0000
  Ta  Ta785     1.0  0.14430  0.43079  0.69330  1.0000
  Ta  Ta786     1.0  0.27384  0.45568  0.81757  1.0000
  Ta  Ta787     1.0  0.37392  0.43766  0.65811  1.0000
  Ta  Ta788     1.0  0.35033  0.41805  0.81601  1.0000
  Ta  Ta789     1.0  0.46844  0.49635  0.68100  1.0000
  Ta  Ta790     1.0  0.42788  0.45132  0.73929  1.0000
  Ta  Ta791     1.0  0.50331  0.42536  0.66440  1.0000
  Ta  Ta792     1.0  0.53386  0.45527  0.73792  1.0000
  Ta  Ta793     1.0  0.59050  0.40224  0.70562  1.0000
  Ta  Ta794     1.0  0.67458  0.42508  0.72421  1.0000
  Ta  Ta795     1.0  0.65828  0.35926  0.68337  1.0000
  Ta  Ta796     1.0  0.71027  0.41105  0.79751  1.0000
  Ta  Ta797     1.0  0.82113  0.38904  0.74496  1.0000
  Ta  Ta798     1.0  0.79729  0.44947  0.79512  1.0000
  Ta  Ta799     1.0  0.88138  0.38891  0.70997  1.0000
  Ta  Ta800     1.0  0.97560  0.39943  0.74709  1.0000
  Ta  Ta801     1.0  0.95804  0.03593  0.71780  1.0000
  Ta  Ta802     1.0  0.04411  0.01224  0.78209  1.0000
  Ta  Ta803     1.0  0.11335  0.96993  0.76907  1.0000
  Ta  Ta804     1.0  0.19381  0.01513  0.81105  1.0000
  Ta  Ta805     1.0  0.18367  0.94007  0.78497  1.0000
  Ta  Ta806     1.0  0.25430  0.01427  0.75258  1.0000
  Ta  Ta807     1.0  0.38242  0.99501  0.80446  1.0000
  Ta  Ta808     1.0  0.36577  0.08789  0.83268  1.0000
  Ta  Ta809     1.0  0.41492  0.05460  0.78011  1.0000
  Ta  Ta810     1.0  0.50742  0.00401  0.82285  1.0000
  Ta  Ta811     1.0  0.49991  0.92056  0.85712  1.0000
  Ta  Ta812     1.0  0.55382  0.03499  0.88632  1.0000
  Ta  Ta813     1.0  0.59284  0.02409  0.81434  1.0000
  Ta  Ta814     1.0  0.69865  0.07515  0.90452  1.0000
  Ta  Ta815     1.0  0.67922  0.99159  0.78337  1.0000
  Ta  Ta816     1.0  0.72249  0.03771  0.84353  1.0000
  Ta  Ta817     1.0  0.81094  0.01415  0.87413  1.0000
  Ta  Ta818     1.0  0.88271  0.06471  0.90368  1.0000
  Ta  Ta819     1.0  0.87148  0.93264  0.86938  1.0000
  Ta  Ta820     1.0  0.98500  0.04055  0.81537  1.0000
  Ta  Ta821     1.0  0.03936  0.10869  0.83000  1.0000
  Ta  Ta822     1.0  0.07453  0.19049  0.83208  1.0000
  Ta  Ta823     1.0  0.14510  0.05118  0.75075  1.0000
  Ta  Ta824     1.0  0.18153  0.18511  0.72701  1.0000
  Ta  Ta825     1.0  0.17822  0.09252  0.84422  1.0000
  Ta  Ta826     1.0  0.27662  0.19624  0.81990  1.0000
  Ta  Ta827     1.0  0.32769  0.04098  0.78375  1.0000
  Ta  Ta828     1.0  0.40401  0.13375  0.93068  1.0000
  Ta  Ta829     1.0  0.48595  0.10726  0.76861  1.0000
  Ta  Ta830     1.0  0.55031  0.09230  0.81267  1.0000
  Ta  Ta831     1.0  0.54082  0.11876  0.89994  1.0000
  Ta  Ta832     1.0  0.49552  0.12936  0.95655  1.0000
  Ta  Ta833     1.0  0.62282  0.09967  0.86268  1.0000
  Ta  Ta834     1.0  0.69922  0.14055  0.85396  1.0000
  Ta  Ta835     1.0  0.68337  0.10051  0.79564  1.0000
  Ta  Ta836     1.0  0.76832  0.11691  0.86922  1.0000
  Ta  Ta837     1.0  0.79586  0.07458  0.81312  1.0000
  Ta  Ta838     1.0  0.84150  0.12050  0.86719  1.0000
  Ta  Ta839     1.0  0.93080  0.09874  0.82178  1.0000
  Ta  Ta840     1.0  0.97741  0.16986  0.84003  1.0000
  Ta  Ta841     1.0  0.98649  0.18102  0.75709  1.0000
  Ta  Ta842     1.0  0.07101  0.22984  0.76048  1.0000
  Ta  Ta843     1.0  0.13715  0.22818  0.81316  1.0000
  Ta  Ta844     1.0  0.12350  0.35879  0.78124  1.0000
  Ta  Ta845     1.0  0.20614  0.25904  0.80072  1.0000
  Ta  Ta846     1.0  0.23499  0.33461  0.86415  1.0000
  Ta  Ta847     1.0  0.38671  0.27449  0.78785  1.0000
  Ta  Ta848     1.0  0.35247  0.21468  0.81072  1.0000
  Ta  Ta849     1.0  0.41913  0.21912  0.73166  1.0000
  Ta  Ta850     1.0  0.40557  0.19820  0.87162  1.0000
  Ta  Ta851     1.0  0.42296  0.14355  0.79125  1.0000
  Ta  Ta852     1.0  0.55468  0.25681  0.80427  1.0000
  Ta  Ta853     1.0  0.55305  0.19342  0.75938  1.0000
  Ta  Ta854     1.0  0.63505  0.21348  0.82155  1.0000
  Ta  Ta855     1.0  0.77856  0.24128  0.76995  1.0000
  Ta  Ta856     1.0  0.70739  0.21215  0.86058  1.0000
  Ta  Ta857     1.0  0.78350  0.18224  0.81726  1.0000
  Ta  Ta858     1.0  0.86741  0.19849  0.85181  1.0000
  Ta  Ta859     1.0  0.85346  0.13092  0.79088  1.0000
  Ta  Ta860     1.0  0.92333  0.17002  0.79393  1.0000
  Ta  Ta861     1.0  0.99957  0.32235  0.79286  1.0000
  Ta  Ta862     1.0  0.07943  0.29238  0.82554  1.0000
  Ta  Ta863     1.0  0.05731  0.31857  0.74264  1.0000
  Ta  Ta864     1.0  0.09351  0.36299  0.87870  1.0000
  Ta  Ta865     1.0  0.27174  0.29815  0.76567  1.0000
  Ta  Ta866     1.0  0.32935  0.33932  0.80113  1.0000
  Ta  Ta867     1.0  0.45329  0.30444  0.74913  1.0000
  Ta  Ta868     1.0  0.42293  0.34079  0.83094  1.0000
  Ta  Ta869     1.0  0.50750  0.33018  0.81456  1.0000
  Ta  Ta870     1.0  0.38997  0.28373  0.87141  1.0000
  Ta  Ta871     1.0  0.47439  0.26249  0.88396  1.0000
  Ta  Ta872     1.0  0.57640  0.34638  0.85881  1.0000
  Ta  Ta873     1.0  0.59964  0.27158  0.73767  1.0000
  Ta  Ta874     1.0  0.62408  0.30429  0.81497  1.0000
  Ta  Ta875     1.0  0.73653  0.28673  0.83081  1.0000
  Ta  Ta876     1.0  0.76832  0.32821  0.88740  1.0000
  Ta  Ta877     1.0  0.83536  0.28389  0.81533  1.0000
  Ta  Ta878     1.0  0.93245  0.28786  0.84519  1.0000
  Ta  Ta879     1.0  0.91756  0.24544  0.79094  1.0000
  Ta  Ta880     1.0  0.92997  0.36764  0.84717  1.0000
  Ta  Ta881     1.0  0.04334  0.39014  0.80916  1.0000
  Ta  Ta882     1.0  0.11699  0.43226  0.83158  1.0000
  Ta  Ta883     1.0  0.18569  0.45509  0.77616  1.0000
  Ta  Ta884     1.0  0.15759  0.50652  0.81669  1.0000
  Ta  Ta885     1.0  0.26979  0.38617  0.78371  1.0000
  Ta  Ta886     1.0  0.22268  0.51381  0.86047  1.0000
  Ta  Ta887     1.0  0.28306  0.38715  0.86927  1.0000
  Ta  Ta888     1.0  0.35833  0.49815  0.81076  1.0000
  Ta  Ta889     1.0  0.43879  0.42106  0.83862  1.0000
  Ta  Ta890     1.0  0.49047  0.37203  0.88514  1.0000
  Ta  Ta891     1.0  0.51524  0.41520  0.82119  1.0000
  Ta  Ta892     1.0  0.49169  0.50549  0.84358  1.0000
  Ta  Ta893     1.0  0.61899  0.41575  0.86922  1.0000
  Ta  Ta894     1.0  0.62920  0.49832  0.82470  1.0000
  Ta  Ta895     1.0  0.67986  0.36286  0.84632  1.0000
  Ta  Ta896     1.0  0.76451  0.41595  0.85657  1.0000
  Ta  Ta897     1.0  0.79125  0.33953  0.79858  1.0000
  Ta  Ta898     1.0  0.83660  0.39166  0.84353  1.0000
  Ta  Ta899     1.0  0.90264  0.33998  0.78866  1.0000
  Ta  Ta900     1.0  0.96012  0.45686  0.81616  1.0000
  Ta  Ta901     1.0  0.07932  0.00476  0.93289  1.0000
  Ta  Ta902     1.0  0.11583  0.06851  0.91240  1.0000
  Ta  Ta903     1.0  0.12214  0.99382  0.85989  1.0000
  Ta  Ta904     1.0  0.17176  0.01880  0.92711  1.0000
  Ta  Ta905     1.0  0.25625  0.98231  0.81913  1.0000
  Ta  Ta906     1.0  0.26523  0.09674  0.78802  1.0000
  Ta  Ta907     1.0  0.32793  0.99574  0.84693  1.0000
  Ta  Ta908     1.0  0.32888  0.99027  0.95413  1.0000
  Ta  Ta909     1.0  0.41146  0.98804  0.92766  1.0000
  Ta  Ta910     1.0  0.42104  0.97787  0.99661  1.0000
  Ta  Ta911     1.0  0.50008  0.97791  0.91403  1.0000
  Ta  Ta912     1.0  0.53818  0.05838  0.96121  1.0000
  Ta  Ta913     1.0  0.62900  0.89551  0.98806  1.0000
  Ta  Ta914     1.0  0.60570  0.06176  0.01074  1.0000
  Ta  Ta915     1.0  0.64097  0.01446  0.88919  1.0000
  Ta  Ta916     1.0  0.67185  0.95127  0.92969  1.0000
  Ta  Ta917     1.0  0.73811  0.98834  0.91350  1.0000
  Ta  Ta918     1.0  0.73940  0.06953  0.01297  1.0000
  Ta  Ta919     1.0  0.95981  0.99851  0.89303  1.0000
  Ta  Ta920     1.0  0.93700  0.04355  0.97002  1.0000
  Ta  Ta921     1.0  0.98327  0.11312  0.89782  1.0000
  Ta  Ta922     1.0  0.05092  0.13652  0.91541  1.0000
  Ta  Ta923     1.0  0.02959  0.03097  0.87790  1.0000
  Ta  Ta924     1.0  0.17841  0.19279  0.96142  1.0000
  Ta  Ta925     1.0  0.23561  0.04875  0.86551  1.0000
  Ta  Ta926     1.0  0.31384  0.06880  0.92214  1.0000
  Ta  Ta927     1.0  0.39132  0.06215  0.89361  1.0000
  Ta  Ta928     1.0  0.36882  0.17446  0.98583  1.0000
  Ta  Ta929     1.0  0.46347  0.05669  0.92113  1.0000
  Ta  Ta930     1.0  0.43614  0.10302  0.99126  1.0000
  Ta  Ta931     1.0  0.45656  0.09350  0.84597  1.0000
  Ta  Ta932     1.0  0.58115  0.14223  0.96416  1.0000
  Ta  Ta933     1.0  0.60819  0.07461  0.93150  1.0000
  Ta  Ta934     1.0  0.65520  0.13135  0.97454  1.0000
  Ta  Ta935     1.0  0.66942  0.04132  0.96666  1.0000
  Ta  Ta936     1.0  0.73433  0.18009  0.92547  1.0000
  Ta  Ta937     1.0  0.76512  0.05867  0.94340  1.0000
  Ta  Ta938     1.0  0.82344  0.17366  0.92852  1.0000
  Ta  Ta939     1.0  0.84175  0.09637  0.97324  1.0000
  Ta  Ta940     1.0  0.93916  0.12424  0.97356  1.0000
  Ta  Ta941     1.0  0.98664  0.18798  0.92024  1.0000
  Ta  Ta942     1.0  0.05260  0.23014  0.89194  1.0000
  Ta  Ta943     1.0  0.10454  0.06623  0.82965  1.0000
  Ta  Ta944     1.0  0.15747  0.33577  0.88160  1.0000
  Ta  Ta945     1.0  0.11888  0.13443  0.87413  1.0000
  Ta  Ta946     1.0  0.25628  0.19202  0.90142  1.0000
  Ta  Ta947     1.0  0.33227  0.14556  0.88479  1.0000
  Ta  Ta948     1.0  0.32382  0.22883  0.90480  1.0000
  Ta  Ta949     1.0  0.40596  0.24041  0.95054  1.0000
  Ta  Ta950     1.0  0.41027  0.30738  0.00682  1.0000
  Ta  Ta951     1.0  0.46956  0.18728  0.91346  1.0000
  Ta  Ta952     1.0  0.53580  0.21082  0.93428  1.0000
  Ta  Ta953     1.0  0.56887  0.17287  0.85410  1.0000
  Ta  Ta954     1.0  0.63793  0.28166  0.95840  1.0000
  Ta  Ta955     1.0  0.64124  0.19596  0.90847  1.0000
  Ta  Ta956     1.0  0.74134  0.27105  0.91857  1.0000
  Ta  Ta957     1.0  0.79061  0.23830  0.87135  1.0000
  Ta  Ta958     1.0  0.88325  0.21524  0.94899  1.0000
  Ta  Ta959     1.0  0.90448  0.13827  0.91016  1.0000
  Ta  Ta960     1.0  0.85505  0.16444  0.00284  1.0000
  Ta  Ta961     1.0  0.00559  0.23522  0.81688  1.0000
  Ta  Ta962     1.0  0.07036  0.30364  0.92206  1.0000
  Ta  Ta963     1.0  0.12594  0.25914  0.90546  1.0000
  Ta  Ta964     1.0  0.18086  0.41407  0.98204  1.0000
  Ta  Ta965     1.0  0.20860  0.26820  0.87374  1.0000
  Ta  Ta966     1.0  0.18682  0.27320  0.95321  1.0000
  Ta  Ta967     1.0  0.28811  0.27896  0.85547  1.0000
  Ta  Ta968     1.0  0.36364  0.36072  0.87077  1.0000
  Ta  Ta969     1.0  0.33020  0.32112  0.92059  1.0000
  Ta  Ta970     1.0  0.38566  0.38315  0.95247  1.0000
  Ta  Ta971     1.0  0.49779  0.17120  0.82814  1.0000
  Ta  Ta972     1.0  0.43649  0.33294  0.91300  1.0000
  Ta  Ta973     1.0  0.58788  0.26780  0.88493  1.0000
  Ta  Ta974     1.0  0.71047  0.36220  0.03383  1.0000
  Ta  Ta975     1.0  0.67235  0.29132  0.87338  1.0000
  Ta  Ta976     1.0  0.78476  0.38798  0.92888  1.0000
  Ta  Ta977     1.0  0.86616  0.28381  0.90479  1.0000
  Ta  Ta978     1.0  0.86160  0.37169  0.98186  1.0000
  Ta  Ta979     1.0  0.93860  0.25166  0.91840  1.0000
  Ta  Ta980     1.0  0.99607  0.26473  0.96331  1.0000
  Ta  Ta981     1.0  0.00362  0.31183  0.87260  1.0000
  Ta  Ta982     1.0  0.99640  0.41258  0.88049  1.0000
  Ta  Ta983     1.0  0.14371  0.42462  0.91272  1.0000
  Ta  Ta984     1.0  0.12819  0.46804  0.99979  1.0000
  Ta  Ta985     1.0  0.18984  0.40849  0.84069  1.0000
  Ta  Ta986     1.0  0.23036  0.44100  0.90299  1.0000
  Ta  Ta987     1.0  0.20866  0.36182  0.93366  1.0000
  Ta  Ta988     1.0  0.30492  0.41002  0.94940  1.0000
  Ta  Ta989     1.0  0.38020  0.45995  0.88728  1.0000
  Ta  Ta990     1.0  0.44979  0.48192  0.91105  1.0000
  Ta  Ta991     1.0  0.51584  0.31520  0.92336  1.0000
  Ta  Ta992     1.0  0.54229  0.40931  0.91537  1.0000
  Ta  Ta993     1.0  0.58995  0.35099  0.93448  1.0000
  Ta  Ta994     1.0  0.62138  0.47111  0.91908  1.0000
  Ta  Ta995     1.0  0.70892  0.33447  0.94255  1.0000
  Ta  Ta996     1.0  0.68045  0.39915  0.92456  1.0000
  Ta  Ta997     1.0  0.86240  0.35857  0.90216  1.0000
  Ta  Ta998     1.0  0.85596  0.43770  0.93688  1.0000
  Ta  Ta999     1.0  0.93433  0.33395  0.92965  1.0000
  Ta  Ta1000    1.0  0.94246  0.42650  0.95218  1.0000
  Ta  Ta1001    1.0  0.89448  0.49328  0.99523  1.0000
  Ta  Ta1002    1.0  0.01468  0.52017  0.04039  1.0000
  Ta  Ta1003    1.0  0.06630  0.49736  0.98110  1.0000
  Ta  Ta1004    1.0  0.11336  0.56078  0.93415  1.0000
  Ta  Ta1005    1.0  0.20838  0.47889  0.01355  1.0000
  Ta  Ta1006    1.0  0.22623  0.52856  0.09314  1.0000
  Ta  Ta1007    1.0  0.31414  0.50096  0.95846  1.0000
  Ta  Ta1008    1.0  0.39333  0.52478  0.02241  1.0000
  Ta  Ta1009    1.0  0.39169  0.47974  0.96512  1.0000
  Ta  Ta1010    1.0  0.46705  0.49536  0.00184  1.0000
  Ta  Ta1011    1.0  0.54642  0.51095  0.03810  1.0000
  Ta  Ta1012    1.0  0.52988  0.58940  0.06830  1.0000
  Ta  Ta1013    1.0  0.60553  0.52120  0.99283  1.0000
  Ta  Ta1014    1.0  0.68848  0.54736  0.00116  1.0000
  Ta  Ta1015    1.0  0.68864  0.47730  0.96308  1.0000
  Ta  Ta1016    1.0  0.73214  0.60928  0.04129  1.0000
  Ta  Ta1017    1.0  0.76935  0.48500  0.00822  1.0000
  Ta  Ta1018    1.0  0.87913  0.54548  0.08537  1.0000
  Ta  Ta1019    1.0  0.82590  0.43080  0.02456  1.0000
  Ta  Ta1020    1.0  0.93473  0.56197  0.01997  1.0000
  Ta  Ta1021    1.0  0.88622  0.56172  0.95576  1.0000
  Ta  Ta1022    1.0  0.94538  0.63802  0.97707  1.0000
  Ta  Ta1023    1.0  0.17156  0.63055  0.92446  1.0000
  Ta  Ta1024    1.0  0.06789  0.60296  0.07826  1.0000
  Ta  Ta1025    1.0  0.11555  0.61023  0.00399  1.0000
  Ta  Ta1026    1.0  0.16489  0.58715  0.09213  1.0000
  Ta  Ta1027    1.0  0.25603  0.57905  0.04098  1.0000
  Ta  Ta1028    1.0  0.37913  0.61455  0.02111  1.0000
  Ta  Ta1029    1.0  0.45330  0.58624  0.04072  1.0000
  Ta  Ta1030    1.0  0.47908  0.67014  0.07944  1.0000
  Ta  Ta1031    1.0  0.52512  0.57108  0.98218  1.0000
  Ta  Ta1032    1.0  0.52210  0.64112  0.01156  1.0000
  Ta  Ta1033    1.0  0.60151  0.60159  0.98871  1.0000
  Ta  Ta1034    1.0  0.56891  0.67071  0.08420  1.0000
  Ta  Ta1035    1.0  0.75467  0.65571  0.97710  1.0000
  Ta  Ta1036    1.0  0.72051  0.69609  0.07223  1.0000
  Ta  Ta1037    1.0  0.80254  0.57021  0.03821  1.0000
  Ta  Ta1038    1.0  0.79882  0.65796  0.04670  1.0000
  Ta  Ta1039    1.0  0.81708  0.60593  0.96274  1.0000
  Ta  Ta1040    1.0  0.88127  0.65901  0.12416  1.0000
  Ta  Ta1041    1.0  0.01387  0.71599  0.97492  1.0000
  Ta  Ta1042    1.0  0.99814  0.67964  0.08553  1.0000
  Ta  Ta1043    1.0  0.09831  0.53533  0.03258  1.0000
  Ta  Ta1044    1.0  0.17812  0.74729  0.05650  1.0000
  Ta  Ta1045    1.0  0.21644  0.65998  0.08162  1.0000
  Ta  Ta1046    1.0  0.27143  0.76236  0.11475  1.0000
  Ta  Ta1047    1.0  0.28903  0.64357  0.03174  1.0000
  Ta  Ta1048    1.0  0.27801  0.68966  0.13852  1.0000
  Ta  Ta1049    1.0  0.43947  0.65209  0.99618  1.0000
  Ta  Ta1050    1.0  0.40036  0.70721  0.03761  1.0000
  Ta  Ta1051    1.0  0.50894  0.72065  0.03288  1.0000
  Ta  Ta1052    1.0  0.51033  0.74658  0.10839  1.0000
  Ta  Ta1053    1.0  0.58942  0.69911  0.01219  1.0000
  Ta  Ta1054    1.0  0.58740  0.71767  0.15030  1.0000
  Ta  Ta1055    1.0  0.68116  0.69550  0.99083  1.0000
  Ta  Ta1056    1.0  0.73612  0.77206  0.12070  1.0000
  Ta  Ta1057    1.0  0.80362  0.73814  0.99805  1.0000
  Ta  Ta1058    1.0  0.83466  0.82117  0.05600  1.0000
  Ta  Ta1059    1.0  0.93061  0.69942  0.02652  1.0000
  Ta  Ta1060    1.0  0.97174  0.76766  0.05853  1.0000
  Ta  Ta1061    1.0  0.97585  0.82421  0.10718  1.0000
  Ta  Ta1062    1.0  0.10754  0.80989  0.05405  1.0000
  Ta  Ta1063    1.0  0.07486  0.68980  0.03241  1.0000
  Ta  Ta1064    1.0  0.14134  0.86179  0.10353  1.0000
  Ta  Ta1065    1.0  0.19613  0.83657  0.02698  1.0000
  Ta  Ta1066    1.0  0.22693  0.91130  0.05872  1.0000
  Ta  Ta1067    1.0  0.28821  0.79022  0.03025  1.0000
  Ta  Ta1068    1.0  0.36758  0.82965  0.01472  1.0000
  Ta  Ta1069    1.0  0.35900  0.75986  0.98591  1.0000
  Ta  Ta1070    1.0  0.44787  0.86209  0.00598  1.0000
  Ta  Ta1071    1.0  0.48863  0.77536  0.95630  1.0000
  Ta  Ta1072    1.0  0.62496  0.81962  0.86355  1.0000
  Ta  Ta1073    1.0  0.59022  0.84237  0.02752  1.0000
  Ta  Ta1074    1.0  0.58818  0.78996  0.10650  1.0000
  Ta  Ta1075    1.0  0.64224  0.72104  0.06290  1.0000
  Ta  Ta1076    1.0  0.75885  0.81783  0.04535  1.0000
  Ta  Ta1077    1.0  0.81259  0.82806  0.98905  1.0000
  Ta  Ta1078    1.0  0.82469  0.79119  0.13376  1.0000
  Ta  Ta1079    1.0  0.90480  0.78576  0.03850  1.0000
  Ta  Ta1080    1.0  0.90070  0.87739  0.99593  1.0000
  Ta  Ta1081    1.0  0.03191  0.80913  0.99845  1.0000
  Ta  Ta1082    1.0  0.03505  0.95890  0.04688  1.0000
  Ta  Ta1083    1.0  0.14399  0.90787  0.02704  1.0000
  Ta  Ta1084    1.0  0.19084  0.96872  0.00294  1.0000
  Ta  Ta1085    1.0  0.20038  0.89570  0.94688  1.0000
  Ta  Ta1086    1.0  0.25799  0.97723  0.07973  1.0000
  Ta  Ta1087    1.0  0.27860  0.93128  0.97777  1.0000
  Ta  Ta1088    1.0  0.33673  0.97075  0.03512  1.0000
  Ta  Ta1089    1.0  0.38730  0.90819  0.99233  1.0000
  Ta  Ta1090    1.0  0.47964  0.89892  0.07136  1.0000
  Ta  Ta1091    1.0  0.52121  0.80017  0.03101  1.0000
  Ta  Ta1092    1.0  0.54849  0.90549  0.01945  1.0000
  Ta  Ta1093    1.0  0.60956  0.83104  0.93709  1.0000
  Ta  Ta1094    1.0  0.64882  0.92777  0.07911  1.0000
  Ta  Ta1095    1.0  0.68860  0.86649  0.07481  1.0000
  Ta  Ta1096    1.0  0.85019  0.91355  0.04883  1.0000
  Ta  Ta1097    1.0  0.78136  0.88784  0.02867  1.0000
  Ta  Ta1098    1.0  0.87479  0.99386  0.00722  1.0000
  Ta  Ta1099    1.0  0.98907  0.87660  0.99008  1.0000
  Ta  Ta1100    1.0  0.95328  0.93796  0.05315  1.0000
  Ta  Ta1101    1.0  0.97849  0.50139  0.98019  1.0000
  Ta  Ta1102    1.0  0.97666  0.56216  0.10435  1.0000
  Ta  Ta1103    1.0  0.12841  0.52168  0.12511  1.0000
  Ta  Ta1104    1.0  0.13588  0.45644  0.16876  1.0000
  Ta  Ta1105    1.0  0.16584  0.53937  0.00379  1.0000
  Ta  Ta1106    1.0  0.19867  0.55826  0.16859  1.0000
  Ta  Ta1107    1.0  0.29351  0.52644  0.14838  1.0000
  Ta  Ta1108    1.0  0.34486  0.57150  0.20815  1.0000
  Ta  Ta1109    1.0  0.43214  0.46870  0.05291  1.0000
  Ta  Ta1110    1.0  0.43489  0.52563  0.09196  1.0000
  Ta  Ta1111    1.0  0.54171  0.51462  0.11737  1.0000
  Ta  Ta1112    1.0  0.56101  0.44433  0.17717  1.0000
  Ta  Ta1113    1.0  0.64438  0.47813  0.05374  1.0000
  Ta  Ta1114    1.0  0.71674  0.51484  0.05591  1.0000
  Ta  Ta1115    1.0  0.65903  0.44063  0.12405  1.0000
  Ta  Ta1116    1.0  0.77724  0.53797  0.12177  1.0000
  Ta  Ta1117    1.0  0.79251  0.46945  0.09250  1.0000
  Ta  Ta1118    1.0  0.84971  0.54153  0.19224  1.0000
  Ta  Ta1119    1.0  0.93378  0.51854  0.15061  1.0000
  Ta  Ta1120    1.0  0.93762  0.59542  0.16618  1.0000
  Ta  Ta1121    1.0  0.93709  0.63531  0.07517  1.0000
  Ta  Ta1122    1.0  0.01055  0.64640  0.16057  1.0000
  Ta  Ta1123    1.0  0.05138  0.54993  0.13379  1.0000
  Ta  Ta1124    1.0  0.12697  0.65559  0.09286  1.0000
  Ta  Ta1125    1.0  0.08678  0.59931  0.17692  1.0000
  Ta  Ta1126    1.0  0.19149  0.63192  0.15794  1.0000
  Ta  Ta1127    1.0  0.28004  0.60227  0.10946  1.0000
  Ta  Ta1128    1.0  0.33136  0.61943  0.15423  1.0000
  Ta  Ta1129    1.0  0.34527  0.57464  0.08413  1.0000
  Ta  Ta1130    1.0  0.41935  0.60788  0.10071  1.0000
  Ta  Ta1131    1.0  0.56986  0.58972  0.13525  1.0000
  Ta  Ta1132    1.0  0.69263  0.56388  0.11131  1.0000
  Ta  Ta1133    1.0  0.61058  0.55151  0.06873  1.0000
  Ta  Ta1134    1.0  0.70700  0.60316  0.18397  1.0000
  Ta  Ta1135    1.0  0.65593  0.62964  0.03906  1.0000
  Ta  Ta1136    1.0  0.75274  0.61965  0.12381  1.0000
  Ta  Ta1137    1.0  0.83650  0.60683  0.09635  1.0000
  Ta  Ta1138    1.0  0.87694  0.62138  0.20307  1.0000
  Ta  Ta1139    1.0  0.87795  0.60831  0.02630  1.0000
  Ta  Ta1140    1.0  0.94638  0.71876  0.28600  1.0000
  Ta  Ta1141    1.0  0.01483  0.70567  0.21436  1.0000
  Ta  Ta1142    1.0  0.05860  0.77037  0.16833  1.0000
  Ta  Ta1143    1.0  0.01300  0.62959  0.02012  1.0000
  Ta  Ta1144    1.0  0.07468  0.67914  0.14147  1.0000
  Ta  Ta1145    1.0  0.18822  0.79535  0.12540  1.0000
  Ta  Ta1146    1.0  0.28774  0.73535  0.19890  1.0000
  Ta  Ta1147    1.0  0.20010  0.71595  0.14987  1.0000
  Ta  Ta1148    1.0  0.36709  0.77613  0.09076  1.0000
  Ta  Ta1149    1.0  0.37911  0.68236  0.11613  1.0000
  Ta  Ta1150    1.0  0.42129  0.71825  0.19053  1.0000
  Ta  Ta1151    1.0  0.50068  0.68454  0.15018  1.0000
  Ta  Ta1152    1.0  0.56233  0.89227  0.16827  1.0000
  Ta  Ta1153    1.0  0.59999  0.64782  0.17913  1.0000
  Ta  Ta1154    1.0  0.67358  0.68467  0.18453  1.0000
  Ta  Ta1155    1.0  0.65825  0.63418  0.11248  1.0000
  Ta  Ta1156    1.0  0.73953  0.69121  0.14684  1.0000
  Ta  Ta1157    1.0  0.79480  0.72483  0.08744  1.0000
  Ta  Ta1158    1.0  0.91070  0.79875  0.14483  1.0000
  Ta  Ta1159    1.0  0.93743  0.74127  0.21223  1.0000
  Ta  Ta1160    1.0  0.95600  0.80995  0.26218  1.0000
  Ta  Ta1161    1.0  0.98873  0.73344  0.14687  1.0000
  Ta  Ta1162    1.0  0.05435  0.82195  0.11456  1.0000
  Ta  Ta1163    1.0  0.11059  0.74056  0.10537  1.0000
  Ta  Ta1164    1.0  0.11740  0.90340  0.22448  1.0000
  Ta  Ta1165    1.0  0.18989  0.88046  0.16187  1.0000
  Ta  Ta1166    1.0  0.27950  0.91058  0.14642  1.0000
  Ta  Ta1167    1.0  0.23462  0.83610  0.09060  1.0000
  Ta  Ta1168    1.0  0.29570  0.84027  0.13189  1.0000
  Ta  Ta1169    1.0  0.43074  0.75530  0.11809  1.0000
  Ta  Ta1170    1.0  0.53051  0.96756  0.09953  1.0000
  Ta  Ta1171    1.0  0.44601  0.75908  0.02739  1.0000
  Ta  Ta1172    1.0  0.57651  0.90068  0.09400  1.0000
  Ta  Ta1173    1.0  0.61392  0.82513  0.17498  1.0000
  Ta  Ta1174    1.0  0.63347  0.75472  0.22573  1.0000
  Ta  Ta1175    1.0  0.65353  0.74535  0.12859  1.0000
  Ta  Ta1176    1.0  0.71830  0.74315  0.23762  1.0000
  Ta  Ta1177    1.0  0.69337  0.79561  0.17230  1.0000
  Ta  Ta1178    1.0  0.85321  0.86815  0.11285  1.0000
  Ta  Ta1179    1.0  0.91398  0.72652  0.10487  1.0000
  Ta  Ta1180    1.0  0.91941  0.85918  0.07000  1.0000
  Ta  Ta1181    1.0  0.88819  0.93760  0.13761  1.0000
  Ta  Ta1182    1.0  0.99575  0.89542  0.12939  1.0000
  Ta  Ta1183    1.0  0.04509  0.87222  0.06011  1.0000
  Ta  Ta1184    1.0  0.09640  0.91452  0.14452  1.0000
  Ta  Ta1185    1.0  0.20051  0.95166  0.13520  1.0000
  Ta  Ta1186    1.0  0.28264  0.99021  0.16006  1.0000
  Ta  Ta1187    1.0  0.31239  0.88099  0.05066  1.0000
  Ta  Ta1188    1.0  0.33603  0.95080  0.10723  1.0000
  Ta  Ta1189    1.0  0.45414  0.81351  0.07750  1.0000
  Ta  Ta1190    1.0  0.44991  0.95974  0.14579  1.0000
  Ta  Ta1191    1.0  0.53191  0.83187  0.11370  1.0000
  Ta  Ta1192    1.0  0.51765  0.97278  0.18445  1.0000
  Ta  Ta1193    1.0  0.68072  0.88393  0.15488  1.0000
  Ta  Ta1194    1.0  0.72242  0.94890  0.09936  1.0000
  Ta  Ta1195    1.0  0.65947  0.81359  0.10771  1.0000
  Ta  Ta1196    1.0  0.79551  0.93135  0.11899  1.0000
  Ta  Ta1197    1.0  0.75808  0.86333  0.11278  1.0000
  Ta  Ta1198    1.0  0.90523  0.93800  0.21273  1.0000
  Ta  Ta1199    1.0  0.83815  0.98937  0.19147  1.0000
  Ta  Ta1200    1.0  0.01253  0.97738  0.25535  1.0000
  Ta  Ta1201    1.0  0.98995  0.47959  0.19576  1.0000
  Ta  Ta1202    1.0  0.01249  0.56561  0.19751  1.0000
  Ta  Ta1203    1.0  0.04394  0.46559  0.13707  1.0000
  Ta  Ta1204    1.0  0.08086  0.51960  0.21104  1.0000
  Ta  Ta1205    1.0  0.17683  0.48118  0.23276  1.0000
  Ta  Ta1206    1.0  0.20258  0.57084  0.26392  1.0000
  Ta  Ta1207    1.0  0.30729  0.44840  0.17442  1.0000
  Ta  Ta1208    1.0  0.28766  0.60452  0.25630  1.0000
  Ta  Ta1209    1.0  0.37164  0.48684  0.20642  1.0000
  Ta  Ta1210    1.0  0.39967  0.58086  0.25966  1.0000
  Ta  Ta1211    1.0  0.47141  0.53780  0.25869  1.0000
  Ta  Ta1212    1.0  0.55787  0.49603  0.25082  1.0000
  Ta  Ta1213    1.0  0.65126  0.48068  0.20935  1.0000
  Ta  Ta1214    1.0  0.63811  0.52879  0.27105  1.0000
  Ta  Ta1215    1.0  0.71470  0.52360  0.20052  1.0000
  Ta  Ta1216    1.0  0.79307  0.55472  0.33727  1.0000
  Ta  Ta1217    1.0  0.79910  0.53496  0.25124  1.0000
  Ta  Ta1218    1.0  0.86075  0.55130  0.28264  1.0000
  Ta  Ta1219    1.0  0.90944  0.47764  0.21344  1.0000
  Ta  Ta1220    1.0  0.90990  0.62307  0.26944  1.0000
  Ta  Ta1221    1.0  0.98638  0.62850  0.24371  1.0000
  Ta  Ta1222    1.0  0.06347  0.65210  0.23042  1.0000
  Ta  Ta1223    1.0  0.07646  0.59503  0.26724  1.0000
  Ta  Ta1224    1.0  0.14068  0.66941  0.26760  1.0000
  Ta  Ta1225    1.0  0.15112  0.60477  0.21314  1.0000
  Ta  Ta1226    1.0  0.29467  0.67286  0.28519  1.0000
  Ta  Ta1227    1.0  0.25619  0.61161  0.18944  1.0000
  Ta  Ta1228    1.0  0.34633  0.67237  0.21352  1.0000
  Ta  Ta1229    1.0  0.41266  0.55217  0.17488  1.0000
  Ta  Ta1230    1.0  0.41924  0.63758  0.17255  1.0000
  Ta  Ta1231    1.0  0.51017  0.51375  0.18079  1.0000
  Ta  Ta1232    1.0  0.55530  0.65137  0.28677  1.0000
  Ta  Ta1233    1.0  0.60109  0.54356  0.19571  1.0000
  Ta  Ta1234    1.0  0.64260  0.60532  0.24589  1.0000
  Ta  Ta1235    1.0  0.71897  0.57460  0.25870  1.0000
  Ta  Ta1236    1.0  0.81349  0.65780  0.17056  1.0000
  Ta  Ta1237    1.0  0.78112  0.58397  0.18636  1.0000
  Ta  Ta1238    1.0  0.82284  0.62769  0.28289  1.0000
  Ta  Ta1239    1.0  0.93403  0.54987  0.24551  1.0000
  Ta  Ta1240    1.0  0.85831  0.71129  0.23374  1.0000
  Ta  Ta1241    1.0  0.87581  0.78255  0.27842  1.0000
  Ta  Ta1242    1.0  0.10130  0.73100  0.23894  1.0000
  Ta  Ta1243    1.0  0.13540  0.71148  0.17754  1.0000
  Ta  Ta1244    1.0  0.12854  0.80328  0.17075  1.0000
  Ta  Ta1245    1.0  0.22238  0.69152  0.24060  1.0000
  Ta  Ta1246    1.0  0.33724  0.81055  0.29028  1.0000
  Ta  Ta1247    1.0  0.28201  0.73667  0.32988  1.0000
  Ta  Ta1248    1.0  0.34225  0.80426  0.21799  1.0000
  Ta  Ta1249    1.0  0.35313  0.74820  0.15442  1.0000
  Ta  Ta1250    1.0  0.41394  0.82366  0.15800  1.0000
  Ta  Ta1251    1.0  0.47493  0.57567  0.14121  1.0000
  Ta  Ta1252    1.0  0.49969  0.69161  0.23759  1.0000
  Ta  Ta1253    1.0  0.54146  0.59280  0.20182  1.0000
  Ta  Ta1254    1.0  0.61134  0.72499  0.31992  1.0000
  Ta  Ta1255    1.0  0.74713  0.65860  0.23472  1.0000
  Ta  Ta1256    1.0  0.74130  0.80331  0.29373  1.0000
  Ta  Ta1257    1.0  0.87008  0.73331  0.16415  1.0000
  Ta  Ta1258    1.0  0.94869  0.65593  0.34340  1.0000
  Ta  Ta1259    1.0  0.93352  0.66633  0.19021  1.0000
  Ta  Ta1260    1.0  0.02617  0.77056  0.25959  1.0000
  Ta  Ta1261    1.0  0.99992  0.81606  0.18747  1.0000
  Ta  Ta1262    1.0  0.07575  0.83965  0.25198  1.0000
  Ta  Ta1263    1.0  0.06077  0.86663  0.17802  1.0000
  Ta  Ta1264    1.0  0.13332  0.79076  0.27307  1.0000
  Ta  Ta1265    1.0  0.37579  0.89019  0.24873  1.0000
  Ta  Ta1266    1.0  0.28168  0.86013  0.33100  1.0000
  Ta  Ta1267    1.0  0.24914  0.79725  0.17882  1.0000
  Ta  Ta1268    1.0  0.45631  0.83529  0.23984  1.0000
  Ta  Ta1269    1.0  0.47047  0.87123  0.14453  1.0000
  Ta  Ta1270    1.0  0.56238  0.75341  0.25499  1.0000
  Ta  Ta1271    1.0  0.54919  0.79494  0.19333  1.0000
  Ta  Ta1272    1.0  0.50610  0.89383  0.22361  1.0000
  Ta  Ta1273    1.0  0.61164  0.69288  0.25604  1.0000
  Ta  Ta1274    1.0  0.74420  0.90995  0.27323  1.0000
  Ta  Ta1275    1.0  0.68318  0.66862  0.28654  1.0000
  Ta  Ta1276    1.0  0.78329  0.84229  0.21529  1.0000
  Ta  Ta1277    1.0  0.78617  0.73432  0.21003  1.0000
  Ta  Ta1278    1.0  0.89037  0.85343  0.27152  1.0000
  Ta  Ta1279    1.0  0.85918  0.81279  0.20825  1.0000
  Ta  Ta1280    1.0  0.98694  0.90433  0.24585  1.0000
  Ta  Ta1281    1.0  0.97695  0.96863  0.18469  1.0000
  Ta  Ta1282    1.0  0.10421  0.98209  0.28533  1.0000
  Ta  Ta1283    1.0  0.06122  0.94552  0.20714  1.0000
  Ta  Ta1284    1.0  0.07708  0.92207  0.30729  1.0000
  Ta  Ta1285    1.0  0.14923  0.88784  0.28865  1.0000
  Ta  Ta1286    1.0  0.21819  0.92932  0.21723  1.0000
  Ta  Ta1287    1.0  0.29973  0.86682  0.23735  1.0000
  Ta  Ta1288    1.0  0.38008  0.97562  0.25563  1.0000
  Ta  Ta1289    1.0  0.36912  0.88816  0.16129  1.0000
  Ta  Ta1290    1.0  0.43532  0.03551  0.20543  1.0000
  Ta  Ta1291    1.0  0.42020  0.92858  0.20956  1.0000
  Ta  Ta1292    1.0  0.60701  0.91884  0.22271  1.0000
  Ta  Ta1293    1.0  0.69992  0.82790  0.23434  1.0000
  Ta  Ta1294    1.0  0.68361  0.91362  0.22485  1.0000
  Ta  Ta1295    1.0  0.75461  0.91054  0.19146  1.0000
  Ta  Ta1296    1.0  0.70258  0.99011  0.27764  1.0000
  Ta  Ta1297    1.0  0.84765  0.89383  0.18441  1.0000
  Ta  Ta1298    1.0  0.82606  0.91289  0.25791  1.0000
  Ta  Ta1299    1.0  0.94264  0.86175  0.18633  1.0000
  Ta  Ta1300    1.0  0.91774  0.95059  0.28931  1.0000
  Ta  Ta1301    1.0  0.01392  0.54126  0.26394  1.0000
  Ta  Ta1302    1.0  0.06272  0.52818  0.32200  1.0000
  Ta  Ta1303    1.0  0.05661  0.42673  0.34241  1.0000
  Ta  Ta1304    1.0  0.10566  0.56859  0.41576  1.0000
  Ta  Ta1305    1.0  0.18004  0.52079  0.33908  1.0000
  Ta  Ta1306    1.0  0.33104  0.57505  0.33064  1.0000
  Ta  Ta1307    1.0  0.32843  0.53204  0.27357  1.0000
  Ta  Ta1308    1.0  0.37482  0.63775  0.30924  1.0000
  Ta  Ta1309    1.0  0.41569  0.54626  0.32466  1.0000
  Ta  Ta1310    1.0  0.37244  0.49863  0.38624  1.0000
  Ta  Ta1311    1.0  0.47324  0.61832  0.22383  1.0000
  Ta  Ta1312    1.0  0.52328  0.51812  0.32953  1.0000
  Ta  Ta1313    1.0  0.53834  0.42482  0.31007  1.0000
  Ta  Ta1314    1.0  0.61737  0.46048  0.31313  1.0000
  Ta  Ta1315    1.0  0.70831  0.49756  0.30048  1.0000
  Ta  Ta1316    1.0  0.73885  0.51923  0.39038  1.0000
  Ta  Ta1317    1.0  0.83929  0.53636  0.44907  1.0000
  Ta  Ta1318    1.0  0.88537  0.68808  0.40699  1.0000
  Ta  Ta1319    1.0  0.94121  0.52703  0.38012  1.0000
  Ta  Ta1320    1.0  0.00871  0.60130  0.32462  1.0000
  Ta  Ta1321    1.0  0.02845  0.68734  0.28711  1.0000
  Ta  Ta1322    1.0  0.06602  0.66535  0.36756  1.0000
  Ta  Ta1323    1.0  0.12798  0.54328  0.28215  1.0000
  Ta  Ta1324    1.0  0.14537  0.64362  0.39827  1.0000
  Ta  Ta1325    1.0  0.17753  0.60732  0.33510  1.0000
  Ta  Ta1326    1.0  0.20920  0.67984  0.32766  1.0000
  Ta  Ta1327    1.0  0.25789  0.62229  0.33951  1.0000
  Ta  Ta1328    1.0  0.34967  0.72937  0.27430  1.0000
  Ta  Ta1329    1.0  0.47742  0.60609  0.30276  1.0000
  Ta  Ta1330    1.0  0.48514  0.66049  0.39089  1.0000
  Ta  Ta1331    1.0  0.42868  0.68253  0.26211  1.0000
  Ta  Ta1332    1.0  0.55101  0.71578  0.37869  1.0000
  Ta  Ta1333    1.0  0.59352  0.58178  0.31372  1.0000
  Ta  Ta1334    1.0  0.62739  0.64440  0.33405  1.0000
  Ta  Ta1335    1.0  0.68370  0.57504  0.33186  1.0000
  Ta  Ta1336    1.0  0.79717  0.65964  0.38037  1.0000
  Ta  Ta1337    1.0  0.85768  0.62123  0.34901  1.0000
  Ta  Ta1338    1.0  0.84412  0.69108  0.32113  1.0000
  Ta  Ta1339    1.0  0.86867  0.55189  0.37611  1.0000
  Ta  Ta1340    1.0  0.05673  0.82037  0.38649  1.0000
  Ta  Ta1341    1.0  0.99635  0.75891  0.33950  1.0000
  Ta  Ta1342    1.0  0.07259  0.75205  0.33554  1.0000
  Ta  Ta1343    1.0  0.13584  0.70025  0.34030  1.0000
  Ta  Ta1344    1.0  0.19359  0.75132  0.30622  1.0000
  Ta  Ta1345    1.0  0.18665  0.75555  0.21948  1.0000
  Ta  Ta1346    1.0  0.24750  0.79249  0.36919  1.0000
  Ta  Ta1347    1.0  0.34421  0.67733  0.36294  1.0000
  Ta  Ta1348    1.0  0.33186  0.74475  0.39649  1.0000
  Ta  Ta1349    1.0  0.47595  0.76068  0.21276  1.0000
  Ta  Ta1350    1.0  0.39108  0.75633  0.34332  1.0000
  Ta  Ta1351    1.0  0.44044  0.68895  0.34056  1.0000
  Ta  Ta1352    1.0  0.61930  0.75741  0.39273  1.0000
  Ta  Ta1353    1.0  0.48220  0.76701  0.31105  1.0000
  Ta  Ta1354    1.0  0.68468  0.70285  0.35720  1.0000
  Ta  Ta1355    1.0  0.74555  0.62773  0.32353  1.0000
  Ta  Ta1356    1.0  0.72005  0.76850  0.37654  1.0000
  Ta  Ta1357    1.0  0.78101  0.70942  0.29758  1.0000
  Ta  Ta1358    1.0  0.81226  0.76687  0.39689  1.0000
  Ta  Ta1359    1.0  0.95264  0.70677  0.40109  1.0000
  Ta  Ta1360    1.0  0.95908  0.82136  0.38320  1.0000
  Ta  Ta1361    1.0  0.98405  0.96119  0.32945  1.0000
  Ta  Ta1362    1.0  0.10162  0.89299  0.50132  1.0000
  Ta  Ta1363    1.0  0.09595  0.85160  0.33610  1.0000
  Ta  Ta1364    1.0  0.22402  0.89556  0.29614  1.0000
  Ta  Ta1365    1.0  0.25052  0.77286  0.26225  1.0000
  Ta  Ta1366    1.0  0.19522  0.82198  0.32059  1.0000
  Ta  Ta1367    1.0  0.40522  0.78074  0.26442  1.0000
  Ta  Ta1368    1.0  0.34705  0.81536  0.36675  1.0000
  Ta  Ta1369    1.0  0.55508  0.83969  0.25543  1.0000
  Ta  Ta1370    1.0  0.54550  0.86552  0.38670  1.0000
  Ta  Ta1371    1.0  0.55211  0.78872  0.34212  1.0000
  Ta  Ta1372    1.0  0.62944  0.85637  0.26228  1.0000
  Ta  Ta1373    1.0  0.61525  0.83187  0.34770  1.0000
  Ta  Ta1374    1.0  0.64474  0.94622  0.28834  1.0000
  Ta  Ta1375    1.0  0.68004  0.83287  0.37798  1.0000
  Ta  Ta1376    1.0  0.73325  0.89362  0.38319  1.0000
  Ta  Ta1377    1.0  0.81094  0.77399  0.30547  1.0000
  Ta  Ta1378    1.0  0.78142  0.94767  0.42513  1.0000
  Ta  Ta1379    1.0  0.89211  0.73454  0.34916  1.0000
  Ta  Ta1380    1.0  0.01480  0.84060  0.29504  1.0000
  Ta  Ta1381    1.0  0.93983  0.03577  0.32132  1.0000
  Ta  Ta1382    1.0  0.07324  0.93131  0.40507  1.0000
  Ta  Ta1383    1.0  0.13340  0.84374  0.42406  1.0000
  Ta  Ta1384    1.0  0.18094  0.96518  0.27875  1.0000
  Ta  Ta1385    1.0  0.19341  0.84400  0.22985  1.0000
  Ta  Ta1386    1.0  0.25647  0.98748  0.30443  1.0000
  Ta  Ta1387    1.0  0.41202  0.84134  0.33346  1.0000
  Ta  Ta1388    1.0  0.33330  0.99498  0.32819  1.0000
  Ta  Ta1389    1.0  0.44328  0.91059  0.28674  1.0000
  Ta  Ta1390    1.0  0.42235  0.01439  0.39592  1.0000
  Ta  Ta1391    1.0  0.58704  0.89542  0.31676  1.0000
  Ta  Ta1392    1.0  0.55329  0.95610  0.27396  1.0000
  Ta  Ta1393    1.0  0.66645  0.77912  0.30567  1.0000
  Ta  Ta1394    1.0  0.64236  0.05684  0.30476  1.0000
  Ta  Ta1395    1.0  0.68956  0.86302  0.30784  1.0000
  Ta  Ta1396    1.0  0.78053  0.93990  0.33043  1.0000
  Ta  Ta1397    1.0  0.85825  0.90227  0.35418  1.0000
  Ta  Ta1398    1.0  0.84024  0.97764  0.37323  1.0000
  Ta  Ta1399    1.0  0.89698  0.81797  0.34326  1.0000
  Ta  Ta1400    1.0  0.91254  0.96702  0.37965  1.0000
  Ta  Ta1401    1.0  0.03088  0.57116  0.40111  1.0000
  Ta  Ta1402    1.0  0.16496  0.50923  0.50839  1.0000
  Ta  Ta1403    1.0  0.13543  0.47920  0.44133  1.0000
  Ta  Ta1404    1.0  0.07884  0.63873  0.44868  1.0000
  Ta  Ta1405    1.0  0.24531  0.47758  0.38487  1.0000
  Ta  Ta1406    1.0  0.22196  0.48157  0.45922  1.0000
  Ta  Ta1407    1.0  0.24977  0.53778  0.32582  1.0000
  Ta  Ta1408    1.0  0.30443  0.51664  0.40614  1.0000
  Ta  Ta1409    1.0  0.39533  0.41486  0.41813  1.0000
  Ta  Ta1410    1.0  0.45450  0.49838  0.37888  1.0000
  Ta  Ta1411    1.0  0.46867  0.37926  0.38301  1.0000
  Ta  Ta1412    1.0  0.57870  0.49779  0.38299  1.0000
  Ta  Ta1413    1.0  0.51617  0.43737  0.38736  1.0000
  Ta  Ta1414    1.0  0.64722  0.50882  0.36145  1.0000
  Ta  Ta1415    1.0  0.70498  0.44163  0.35602  1.0000
  Ta  Ta1416    1.0  0.66266  0.54552  0.42233  1.0000
  Ta  Ta1417    1.0  0.82831  0.49392  0.39177  1.0000
  Ta  Ta1418    1.0  0.86258  0.60980  0.44306  1.0000
  Ta  Ta1419    1.0  0.94020  0.57573  0.32691  1.0000
  Ta  Ta1420    1.0  0.05791  0.54431  0.47206  1.0000
  Ta  Ta1421    1.0  0.99750  0.65113  0.41420  1.0000
  Ta  Ta1422    1.0  0.07525  0.69660  0.48808  1.0000
  Ta  Ta1423    1.0  0.09927  0.60006  0.34875  1.0000
  Ta  Ta1424    1.0  0.09444  0.59343  0.51600  1.0000
  Ta  Ta1425    1.0  0.30343  0.45497  0.44849  1.0000
  Ta  Ta1426    1.0  0.22485  0.61672  0.42396  1.0000
  Ta  Ta1427    1.0  0.20118  0.53915  0.41240  1.0000
  Ta  Ta1428    1.0  0.32253  0.59804  0.40935  1.0000
  Ta  Ta1429    1.0  0.40883  0.62431  0.38754  1.0000
  Ta  Ta1430    1.0  0.49079  0.60628  0.45446  1.0000
  Ta  Ta1431    1.0  0.49329  0.56314  0.38979  1.0000
  Ta  Ta1432    1.0  0.54878  0.64597  0.43515  1.0000
  Ta  Ta1433    1.0  0.54688  0.62832  0.36587  1.0000
  Ta  Ta1434    1.0  0.62035  0.60951  0.41304  1.0000
  Ta  Ta1435    1.0  0.79292  0.58036  0.40911  1.0000
  Ta  Ta1436    1.0  0.73733  0.70695  0.42248  1.0000
  Ta  Ta1437    1.0  0.77302  0.63985  0.47812  1.0000
  Ta  Ta1438    1.0  0.81513  0.69836  0.44586  1.0000
  Ta  Ta1439    1.0  0.94469  0.60191  0.41998  1.0000
  Ta  Ta1440    1.0  0.05433  0.73758  0.41170  1.0000
  Ta  Ta1441    1.0  0.02327  0.78220  0.48446  1.0000
  Ta  Ta1442    1.0  0.18720  0.75137  0.50687  1.0000
  Ta  Ta1443    1.0  0.12094  0.74756  0.45125  1.0000
  Ta  Ta1444    1.0  0.23828  0.69445  0.50142  1.0000
  Ta  Ta1445    1.0  0.19700  0.72458  0.41306  1.0000
  Ta  Ta1446    1.0  0.26637  0.78029  0.43867  1.0000
  Ta  Ta1447    1.0  0.26845  0.67581  0.39896  1.0000
  Ta  Ta1448    1.0  0.31292  0.71704  0.46951  1.0000
  Ta  Ta1449    1.0  0.41911  0.71449  0.43825  1.0000
  Ta  Ta1450    1.0  0.47016  0.81644  0.38197  1.0000
  Ta  Ta1451    1.0  0.43077  0.79195  0.44277  1.0000
  Ta  Ta1452    1.0  0.57605  0.73481  0.46873  1.0000
  Ta  Ta1453    1.0  0.62086  0.67939  0.40611  1.0000
  Ta  Ta1454    1.0  0.61476  0.80611  0.46180  1.0000
  Ta  Ta1455    1.0  0.70980  0.62385  0.40718  1.0000
  Ta  Ta1456    1.0  0.79714  0.77703  0.46879  1.0000
  Ta  Ta1457    1.0  0.78027  0.82707  0.36244  1.0000
  Ta  Ta1458    1.0  0.85401  0.83026  0.40438  1.0000
  Ta  Ta1459    1.0  0.92613  0.68492  0.48907  1.0000
  Ta  Ta1460    1.0  0.95033  0.82675  0.47823  1.0000
  Ta  Ta1461    1.0  0.00313  0.88840  0.36908  1.0000
  Ta  Ta1462    1.0  0.11030  0.81527  0.48892  1.0000
  Ta  Ta1463    1.0  0.14377  0.78922  0.37026  1.0000
  Ta  Ta1464    1.0  0.19361  0.86668  0.48048  1.0000
  Ta  Ta1465    1.0  0.18288  0.80108  0.45277  1.0000
  Ta  Ta1466    1.0  0.31142  0.85157  0.44225  1.0000
  Ta  Ta1467    1.0  0.35172  0.78922  0.47246  1.0000
  Ta  Ta1468    1.0  0.39124  0.86894  0.44602  1.0000
  Ta  Ta1469    1.0  0.50742  0.85158  0.31990  1.0000
  Ta  Ta1470    1.0  0.46824  0.84874  0.46467  1.0000
  Ta  Ta1471    1.0  0.48101  0.74296  0.40259  1.0000
  Ta  Ta1472    1.0  0.54438  0.86196  0.49486  1.0000
  Ta  Ta1473    1.0  0.52917  0.79786  0.42898  1.0000
  Ta  Ta1474    1.0  0.59715  0.88642  0.44229  1.0000
  Ta  Ta1475    1.0  0.70759  0.78140  0.46245  1.0000
  Ta  Ta1476    1.0  0.73864  0.83174  0.42657  1.0000
  Ta  Ta1477    1.0  0.80441  0.85527  0.30700  1.0000
  Ta  Ta1478    1.0  0.74325  0.82226  0.51430  1.0000
  Ta  Ta1479    1.0  0.91782  0.77279  0.42023  1.0000
  Ta  Ta1480    1.0  0.02705  0.87064  0.44634  1.0000
  Ta  Ta1481    1.0  0.94760  0.88791  0.31062  1.0000
  Ta  Ta1482    1.0  0.02814  0.94214  0.47665  1.0000
  Ta  Ta1483    1.0  0.15441  0.94467  0.43498  1.0000
  Ta  Ta1484    1.0  0.21084  0.99969  0.47598  1.0000
  Ta  Ta1485    1.0  0.21436  0.85658  0.38967  1.0000
  Ta  Ta1486    1.0  0.29410  0.00055  0.42049  1.0000
  Ta  Ta1487    1.0  0.33588  0.89234  0.37342  1.0000
  Ta  Ta1488    1.0  0.35646  0.95551  0.42258  1.0000
  Ta  Ta1489    1.0  0.39874  0.95758  0.34301  1.0000
  Ta  Ta1490    1.0  0.43975  0.95136  0.44670  1.0000
  Ta  Ta1491    1.0  0.45659  0.89319  0.37913  1.0000
  Ta  Ta1492    1.0  0.52144  0.90668  0.43484  1.0000
  Ta  Ta1493    1.0  0.56733  0.94765  0.38510  1.0000
  Ta  Ta1494    1.0  0.56212  0.98800  0.45046  1.0000
  Ta  Ta1495    1.0  0.64085  0.91973  0.38336  1.0000
  Ta  Ta1496    1.0  0.68068  0.06000  0.54203  1.0000
  Ta  Ta1497    1.0  0.63897  0.95140  0.44455  1.0000
  Ta  Ta1498    1.0  0.82220  0.01875  0.45217  1.0000
  Ta  Ta1499    1.0  0.94162  0.87716  0.42014  1.0000
  Ta  Ta1500    1.0  0.86632  0.92503  0.45945  1.0000
  Ta  Ta1501    1.0  0.97944  0.52884  0.50839  1.0000
  Ta  Ta1502    1.0  0.06108  0.55341  0.66233  1.0000
  Ta  Ta1503    1.0  0.06163  0.46999  0.59902  1.0000
  Ta  Ta1504    1.0  0.19996  0.50785  0.62769  1.0000
  Ta  Ta1505    1.0  0.27960  0.40990  0.38827  1.0000
  Ta  Ta1506    1.0  0.24150  0.53632  0.55143  1.0000
  Ta  Ta1507    1.0  0.28930  0.45286  0.55441  1.0000
  Ta  Ta1508    1.0  0.37314  0.50186  0.47255  1.0000
  Ta  Ta1509    1.0  0.46453  0.53890  0.47578  1.0000
  Ta  Ta1510    1.0  0.56048  0.49360  0.53131  1.0000
  Ta  Ta1511    1.0  0.51051  0.37983  0.44765  1.0000
  Ta  Ta1512    1.0  0.57407  0.57834  0.58239  1.0000
  Ta  Ta1513    1.0  0.60103  0.48979  0.46400  1.0000
  Ta  Ta1514    1.0  0.60314  0.57224  0.50565  1.0000
  Ta  Ta1515    1.0  0.72794  0.51255  0.59077  1.0000
  Ta  Ta1516    1.0  0.72272  0.56642  0.54504  1.0000
  Ta  Ta1517    1.0  0.72909  0.53645  0.46850  1.0000
  Ta  Ta1518    1.0  0.79359  0.48783  0.52976  1.0000
  Ta  Ta1519    1.0  0.89562  0.53478  0.52998  1.0000
  Ta  Ta1520    1.0  0.92268  0.60185  0.49683  1.0000
  Ta  Ta1521    1.0  0.00006  0.69914  0.49270  1.0000
  Ta  Ta1522    1.0  0.01374  0.62877  0.49603  1.0000
  Ta  Ta1523    1.0  0.08631  0.49921  0.52726  1.0000
  Ta  Ta1524    1.0  0.06268  0.66258  0.56250  1.0000
  Ta  Ta1525    1.0  0.15191  0.56433  0.56165  1.0000
  Ta  Ta1526    1.0  0.20886  0.61218  0.52188  1.0000
  Ta  Ta1527    1.0  0.25766  0.54830  0.46950  1.0000
  Ta  Ta1528    1.0  0.40688  0.55447  0.41857  1.0000
  Ta  Ta1529    1.0  0.51523  0.55894  0.53882  1.0000
  Ta  Ta1530    1.0  0.42953  0.64782  0.48858  1.0000
  Ta  Ta1531    1.0  0.56076  0.54638  0.44876  1.0000
  Ta  Ta1532    1.0  0.50378  0.63631  0.52854  1.0000
  Ta  Ta1533    1.0  0.52056  0.48166  0.45176  1.0000
  Ta  Ta1534    1.0  0.63087  0.70484  0.55027  1.0000
  Ta  Ta1535    1.0  0.68807  0.61892  0.47566  1.0000
  Ta  Ta1536    1.0  0.78396  0.65479  0.59068  1.0000
  Ta  Ta1537    1.0  0.80756  0.58447  0.50884  1.0000
  Ta  Ta1538    1.0  0.84950  0.68935  0.63227  1.0000
  Ta  Ta1539    1.0  0.87161  0.63128  0.54871  1.0000
  Ta  Ta1540    1.0  0.91496  0.69881  0.56557  1.0000
  Ta  Ta1541    1.0  0.15323  0.67764  0.56022  1.0000
  Ta  Ta1542    1.0  0.20900  0.74402  0.58525  1.0000
  Ta  Ta1543    1.0  0.15512  0.66277  0.48450  1.0000
  Ta  Ta1544    1.0  0.13973  0.76198  0.60113  1.0000
  Ta  Ta1545    1.0  0.16109  0.58930  0.47359  1.0000
  Ta  Ta1546    1.0  0.31490  0.78063  0.53517  1.0000
  Ta  Ta1547    1.0  0.29895  0.64689  0.47695  1.0000
  Ta  Ta1548    1.0  0.38697  0.73380  0.51988  1.0000
  Ta  Ta1549    1.0  0.36207  0.65762  0.43863  1.0000
  Ta  Ta1550    1.0  0.45413  0.76365  0.57782  1.0000
  Ta  Ta1551    1.0  0.49833  0.68617  0.47610  1.0000
  Ta  Ta1552    1.0  0.53134  0.72283  0.54891  1.0000
  Ta  Ta1553    1.0  0.65581  0.72737  0.46328  1.0000
  Ta  Ta1554    1.0  0.72381  0.74928  0.56044  1.0000
  Ta  Ta1555    1.0  0.71251  0.67382  0.52663  1.0000
  Ta  Ta1556    1.0  0.77116  0.71834  0.51082  1.0000
  Ta  Ta1557    1.0  0.86629  0.78056  0.48844  1.0000
  Ta  Ta1558    1.0  0.79921  0.78568  0.55413  1.0000
  Ta  Ta1559    1.0  0.94087  0.75572  0.51449  1.0000
  Ta  Ta1560    1.0  0.97775  0.82060  0.56072  1.0000
  Ta  Ta1561    1.0  0.87994  0.85009  0.51632  1.0000
  Ta  Ta1562    1.0  0.08936  0.75115  0.55116  1.0000
  Ta  Ta1563    1.0  0.17426  0.81853  0.53770  1.0000
  Ta  Ta1564    1.0  0.22351  0.90852  0.53977  1.0000
  Ta  Ta1565    1.0  0.25813  0.82336  0.51622  1.0000
  Ta  Ta1566    1.0  0.33793  0.92040  0.56591  1.0000
  Ta  Ta1567    1.0  0.33293  0.86933  0.51003  1.0000
  Ta  Ta1568    1.0  0.34606  0.84242  0.61402  1.0000
  Ta  Ta1569    1.0  0.40906  0.80645  0.52399  1.0000
  Ta  Ta1570    1.0  0.38487  0.94070  0.60674  1.0000
  Ta  Ta1571    1.0  0.48917  0.76167  0.49288  1.0000
  Ta  Ta1572    1.0  0.57074  0.78091  0.53303  1.0000
  Ta  Ta1573    1.0  0.65133  0.78712  0.53356  1.0000
  Ta  Ta1574    1.0  0.60999  0.88730  0.52317  1.0000
  Ta  Ta1575    1.0  0.66929  0.86041  0.48606  1.0000
  Ta  Ta1576    1.0  0.72988  0.84247  0.57880  1.0000
  Ta  Ta1577    1.0  0.78827  0.72848  0.60600  1.0000
  Ta  Ta1578    1.0  0.84232  0.84167  0.60214  1.0000
  Ta  Ta1579    1.0  0.85151  0.91253  0.54204  1.0000
  Ta  Ta1580    1.0  0.94005  0.90955  0.49380  1.0000
  Ta  Ta1581    1.0  0.06280  0.83352  0.55028  1.0000
  Ta  Ta1582    1.0  0.07435  0.96097  0.53963  1.0000
  Ta  Ta1583    1.0  0.14979  0.95441  0.50470  1.0000
  Ta  Ta1584    1.0  0.25617  0.98414  0.53632  1.0000
  Ta  Ta1585    1.0  0.24120  0.92539  0.45155  1.0000
  Ta  Ta1586    1.0  0.28828  0.03591  0.50428  1.0000
  Ta  Ta1587    1.0  0.31556  0.96071  0.49427  1.0000
  Ta  Ta1588    1.0  0.39042  0.91634  0.50233  1.0000
  Ta  Ta1589    1.0  0.47775  0.90244  0.52624  1.0000
  Ta  Ta1590    1.0  0.51578  0.01233  0.58152  1.0000
  Ta  Ta1591    1.0  0.56199  0.88166  0.59233  1.0000
  Ta  Ta1592    1.0  0.61223  0.02489  0.56579  1.0000
  Ta  Ta1593    1.0  0.56869  0.95920  0.54554  1.0000
  Ta  Ta1594    1.0  0.64479  0.90740  0.58591  1.0000
  Ta  Ta1595    1.0  0.65704  0.96316  0.51938  1.0000
  Ta  Ta1596    1.0  0.70258  0.90284  0.54582  1.0000
  Ta  Ta1597    1.0  0.71609  0.91448  0.46186  1.0000
  Ta  Ta1598    1.0  0.81472  0.95799  0.50791  1.0000
  Ta  Ta1599    1.0  0.81369  0.86020  0.46954  1.0000
  Ta  Ta1600    1.0  0.96922  0.94338  0.54983  1.0000
  Ta  Ta1601    1.0  0.96498  0.57258  0.57507  1.0000
  Ta  Ta1602    1.0  0.93059  0.51930  0.66439  1.0000
  Ta  Ta1603    1.0  0.10096  0.52897  0.60284  1.0000
  Ta  Ta1604    1.0  0.12772  0.55152  0.67535  1.0000
  Ta  Ta1605    1.0  0.19017  0.49832  0.69882  1.0000
  Ta  Ta1606    1.0  0.21243  0.58055  0.69878  1.0000
  Ta  Ta1607    1.0  0.29358  0.57017  0.61569  1.0000
  Ta  Ta1608    1.0  0.35905  0.55921  0.57791  1.0000
  Ta  Ta1609    1.0  0.44382  0.54456  0.56467  1.0000
  Ta  Ta1610    1.0  0.43679  0.56268  0.65777  1.0000
  Ta  Ta1611    1.0  0.51455  0.51935  0.60915  1.0000
  Ta  Ta1612    1.0  0.62698  0.55417  0.70279  1.0000
  Ta  Ta1613    1.0  0.64024  0.49641  0.57498  1.0000
  Ta  Ta1614    1.0  0.67406  0.56425  0.61797  1.0000
  Ta  Ta1615    1.0  0.72288  0.45758  0.65067  1.0000
  Ta  Ta1616    1.0  0.73902  0.60553  0.63562  1.0000
  Ta  Ta1617    1.0  0.73664  0.42414  0.58581  1.0000
  Ta  Ta1618    1.0  0.79513  0.57183  0.58329  1.0000
  Ta  Ta1619    1.0  0.85973  0.51946  0.60162  1.0000
  Ta  Ta1620    1.0  0.04856  0.62540  0.70823  1.0000
  Ta  Ta1621    1.0  0.97936  0.58777  0.65089  1.0000
  Ta  Ta1622    1.0  0.94783  0.67004  0.64743  1.0000
  Ta  Ta1623    1.0  0.03960  0.59259  0.57153  1.0000
  Ta  Ta1624    1.0  0.19216  0.59414  0.62176  1.0000
  Ta  Ta1625    1.0  0.11689  0.62160  0.61077  1.0000
  Ta  Ta1626    1.0  0.31044  0.68144  0.63264  1.0000
  Ta  Ta1627    1.0  0.27765  0.62726  0.55097  1.0000
  Ta  Ta1628    1.0  0.35143  0.61770  0.63915  1.0000
  Ta  Ta1629    1.0  0.36697  0.58353  0.47628  1.0000
  Ta  Ta1630    1.0  0.41133  0.61714  0.56951  1.0000
  Ta  Ta1631    1.0  0.48764  0.61460  0.60891  1.0000
  Ta  Ta1632    1.0  0.54636  0.69370  0.65156  1.0000
  Ta  Ta1633    1.0  0.60428  0.65235  0.50528  1.0000
  Ta  Ta1634    1.0  0.57898  0.61422  0.65767  1.0000
  Ta  Ta1635    1.0  0.65005  0.60958  0.56177  1.0000
  Ta  Ta1636    1.0  0.77181  0.74852  0.76013  1.0000
  Ta  Ta1637    1.0  0.62739  0.68182  0.63017  1.0000
  Ta  Ta1638    1.0  0.82297  0.60587  0.65593  1.0000
  Ta  Ta1639    1.0  0.89444  0.59421  0.61103  1.0000
  Ta  Ta1640    1.0  0.90027  0.60262  0.69781  1.0000
  Ta  Ta1641    1.0  0.94271  0.75082  0.71176  1.0000
  Ta  Ta1642    1.0  0.05055  0.73745  0.64156  1.0000
  Ta  Ta1643    1.0  0.12668  0.69039  0.63669  1.0000
  Ta  Ta1644    1.0  0.03756  0.84437  0.68756  1.0000
  Ta  Ta1645    1.0  0.22528  0.67448  0.61336  1.0000
  Ta  Ta1646    1.0  0.20078  0.77706  0.66963  1.0000
  Ta  Ta1647    1.0  0.30560  0.71175  0.55827  1.0000
  Ta  Ta1648    1.0  0.27744  0.78603  0.60837  1.0000
  Ta  Ta1649    1.0  0.35218  0.65254  0.53578  1.0000
  Ta  Ta1650    1.0  0.38026  0.69069  0.60505  1.0000
  Ta  Ta1651    1.0  0.44847  0.68802  0.56027  1.0000
  Ta  Ta1652    1.0  0.52194  0.77802  0.62030  1.0000
  Ta  Ta1653    1.0  0.55188  0.65977  0.58187  1.0000
  Ta  Ta1654    1.0  0.69498  0.69937  0.70235  1.0000
  Ta  Ta1655    1.0  0.60703  0.75583  0.60938  1.0000
  Ta  Ta1656    1.0  0.77522  0.73936  0.67989  1.0000
  Ta  Ta1657    1.0  0.76672  0.66248  0.66786  1.0000
  Ta  Ta1658    1.0  0.84775  0.70618  0.52643  1.0000
  Ta  Ta1659    1.0  0.96765  0.64420  0.56639  1.0000
  Ta  Ta1660    1.0  0.89399  0.80455  0.71134  1.0000
  Ta  Ta1661    1.0  0.01108  0.87778  0.52537  1.0000
  Ta  Ta1662    1.0  0.01451  0.90734  0.68565  1.0000
  Ta  Ta1663    1.0  0.20514  0.82485  0.60794  1.0000
  Ta  Ta1664    1.0  0.11493  0.84540  0.62710  1.0000
  Ta  Ta1665    1.0  0.10007  0.78371  0.68283  1.0000
  Ta  Ta1666    1.0  0.24088  0.92987  0.70606  1.0000
  Ta  Ta1667    1.0  0.27218  0.87800  0.58983  1.0000
  Ta  Ta1668    1.0  0.41723  0.86849  0.56423  1.0000
  Ta  Ta1669    1.0  0.36141  0.77050  0.59052  1.0000
  Ta  Ta1670    1.0  0.42922  0.81279  0.62687  1.0000
  Ta  Ta1671    1.0  0.49371  0.83633  0.55720  1.0000
  Ta  Ta1672    1.0  0.52252  0.86105  0.65647  1.0000
  Ta  Ta1673    1.0  0.62302  0.83772  0.58549  1.0000
  Ta  Ta1674    1.0  0.69384  0.84034  0.65268  1.0000
  Ta  Ta1675    1.0  0.67568  0.75686  0.63148  1.0000
  Ta  Ta1676    1.0  0.77208  0.81789  0.64251  1.0000
  Ta  Ta1677    1.0  0.71610  0.69041  0.60699  1.0000
  Ta  Ta1678    1.0  0.80693  0.81616  0.70441  1.0000
  Ta  Ta1679    1.0  0.89901  0.78277  0.57447  1.0000
  Ta  Ta1680    1.0  0.93926  0.82804  0.65260  1.0000
  Ta  Ta1681    1.0  0.99987  0.87608  0.61743  1.0000
  Ta  Ta1682    1.0  0.06909  0.90239  0.59991  1.0000
  Ta  Ta1683    1.0  0.14084  0.92194  0.57914  1.0000
  Ta  Ta1684    1.0  0.20025  0.91118  0.62803  1.0000
  Ta  Ta1685    1.0  0.30012  0.96390  0.61674  1.0000
  Ta  Ta1686    1.0  0.23963  0.99888  0.66792  1.0000
  Ta  Ta1687    1.0  0.26254  0.84777  0.66486  1.0000
  Ta  Ta1688    1.0  0.34246  0.92029  0.67751  1.0000
  Ta  Ta1689    1.0  0.39156  0.83638  0.70309  1.0000
  Ta  Ta1690    1.0  0.42380  0.88385  0.64050  1.0000
  Ta  Ta1691    1.0  0.47659  0.93703  0.59807  1.0000
  Ta  Ta1692    1.0  0.51265  0.00334  0.66007  1.0000
  Ta  Ta1693    1.0  0.60529  0.82751  0.66532  1.0000
  Ta  Ta1694    1.0  0.57039  0.95845  0.62422  1.0000
  Ta  Ta1695    1.0  0.62847  0.89482  0.66512  1.0000
  Ta  Ta1696    1.0  0.70658  0.92024  0.64138  1.0000
  Ta  Ta1697    1.0  0.77393  0.90137  0.52682  1.0000
  Ta  Ta1698    1.0  0.78535  0.89393  0.61409  1.0000
  Ta  Ta1699    1.0  0.91312  0.88599  0.58247  1.0000
  Ta  Ta1700    1.0  0.93837  0.93125  0.63307  1.0000
  Ta  Ta1701    1.0  0.92715  0.45533  0.73406  1.0000
  Ta  Ta1702    1.0  0.07261  0.56602  0.74421  1.0000
  Ta  Ta1703    1.0  0.01562  0.53141  0.73669  1.0000
  Ta  Ta1704    1.0  0.09900  0.63130  0.77829  1.0000
  Ta  Ta1705    1.0  0.22251  0.51540  0.76881  1.0000
  Ta  Ta1706    1.0  0.25893  0.58950  0.75004  1.0000
  Ta  Ta1707    1.0  0.27059  0.51903  0.71317  1.0000
  Ta  Ta1708    1.0  0.40850  0.57711  0.78374  1.0000
  Ta  Ta1709    1.0  0.39347  0.51919  0.72457  1.0000
  Ta  Ta1710    1.0  0.48255  0.51605  0.74698  1.0000
  Ta  Ta1711    1.0  0.53788  0.53148  0.68083  1.0000
  Ta  Ta1712    1.0  0.59337  0.42903  0.77955  1.0000
  Ta  Ta1713    1.0  0.61408  0.48660  0.72926  1.0000
  Ta  Ta1714    1.0  0.63624  0.55935  0.78036  1.0000
  Ta  Ta1715    1.0  0.70171  0.52723  0.69431  1.0000
  Ta  Ta1716    1.0  0.72049  0.58141  0.74691  1.0000
  Ta  Ta1717    1.0  0.76061  0.46472  0.72729  1.0000
  Ta  Ta1718    1.0  0.79895  0.52635  0.75590  1.0000
  Ta  Ta1719    1.0  0.84884  0.52841  0.67823  1.0000
  Ta  Ta1720    1.0  0.98050  0.53400  0.80998  1.0000
  Ta  Ta1721    1.0  0.86135  0.67755  0.71433  1.0000
  Ta  Ta1722    1.0  0.08756  0.69624  0.70486  1.0000
  Ta  Ta1723    1.0  0.05445  0.66350  0.64039  1.0000
  Ta  Ta1724    1.0  0.13536  0.63287  0.71115  1.0000
  Ta  Ta1725    1.0  0.25134  0.63741  0.66697  1.0000
  Ta  Ta1726    1.0  0.21849  0.66470  0.72719  1.0000
  Ta  Ta1727    1.0  0.34890  0.57491  0.73286  1.0000
  Ta  Ta1728    1.0  0.30442  0.64543  0.71620  1.0000
  Ta  Ta1729    1.0  0.41708  0.61021  0.72451  1.0000
  Ta  Ta1730    1.0  0.44659  0.64432  0.82925  1.0000
  Ta  Ta1731    1.0  0.43844  0.66377  0.66580  1.0000
  Ta  Ta1732    1.0  0.49660  0.62143  0.69354  1.0000
  Ta  Ta1733    1.0  0.60597  0.65425  0.71733  1.0000
  Ta  Ta1734    1.0  0.68619  0.65130  0.76302  1.0000
  Ta  Ta1735    1.0  0.67014  0.61410  0.68565  1.0000
  Ta  Ta1736    1.0  0.81473  0.61370  0.73796  1.0000
  Ta  Ta1737    1.0  0.77267  0.55798  0.68441  1.0000
  Ta  Ta1738    1.0  0.86436  0.58707  0.84924  1.0000
  Ta  Ta1739    1.0  0.79154  0.47905  0.62213  1.0000
  Ta  Ta1740    1.0  0.89337  0.54201  0.74411  1.0000
  Ta  Ta1741    1.0  0.99734  0.69095  0.69351  1.0000
  Ta  Ta1742    1.0  0.03507  0.75541  0.72091  1.0000
  Ta  Ta1743    1.0  0.99947  0.73089  0.58119  1.0000
  Ta  Ta1744    1.0  0.19400  0.76095  0.75145  1.0000
  Ta  Ta1745    1.0  0.17331  0.70613  0.68725  1.0000
  Ta  Ta1746    1.0  0.23929  0.74046  0.81664  1.0000
  Ta  Ta1747    1.0  0.25832  0.72325  0.67478  1.0000
  Ta  Ta1748    1.0  0.34441  0.79340  0.75090  1.0000
  Ta  Ta1749    1.0  0.36958  0.68193  0.70027  1.0000
  Ta  Ta1750    1.0  0.42950  0.75331  0.74107  1.0000
  Ta  Ta1751    1.0  0.45580  0.67837  0.75660  1.0000
  Ta  Ta1752    1.0  0.47413  0.73819  0.68592  1.0000
  Ta  Ta1753    1.0  0.60878  0.73078  0.69570  1.0000
  Ta  Ta1754    1.0  0.64440  0.78536  0.77865  1.0000
  Ta  Ta1755    1.0  0.76522  0.67017  0.75432  1.0000
  Ta  Ta1756    1.0  0.71004  0.72574  0.79445  1.0000
  Ta  Ta1757    1.0  0.87883  0.76647  0.64827  1.0000
  Ta  Ta1758    1.0  0.88983  0.71574  0.79112  1.0000
  Ta  Ta1759    1.0  0.95489  0.67672  0.75329  1.0000
  Ta  Ta1760    1.0  0.96530  0.81701  0.73119  1.0000
  Ta  Ta1761    1.0  0.96454  0.75705  0.64190  1.0000
  Ta  Ta1762    1.0  0.05142  0.80916  0.78707  1.0000
  Ta  Ta1763    1.0  0.03655  0.80350  0.61539  1.0000
  Ta  Ta1764    1.0  0.12387  0.83228  0.73711  1.0000
  Ta  Ta1765    1.0  0.18324  0.84871  0.67148  1.0000
  Ta  Ta1766    1.0  0.12166  0.91234  0.70862  1.0000
  Ta  Ta1767    1.0  0.25812  0.79721  0.73035  1.0000
  Ta  Ta1768    1.0  0.34538  0.85886  0.77943  1.0000
  Ta  Ta1769    1.0  0.33502  0.78792  0.67458  1.0000
  Ta  Ta1770    1.0  0.43214  0.81335  0.78275  1.0000
  Ta  Ta1771    1.0  0.40251  0.74054  0.65368  1.0000
  Ta  Ta1772    1.0  0.47124  0.82037  0.69490  1.0000
  Ta  Ta1773    1.0  0.55774  0.78789  0.69532  1.0000
  Ta  Ta1774    1.0  0.66296  0.78495  0.69755  1.0000
  Ta  Ta1775    1.0  0.72776  0.80191  0.73077  1.0000
  Ta  Ta1776    1.0  0.81000  0.90744  0.79725  1.0000
  Ta  Ta1777    1.0  0.84274  0.75972  0.73984  1.0000
  Ta  Ta1778    1.0  0.86461  0.88456  0.65866  1.0000
  Ta  Ta1779    1.0  0.90924  0.79607  0.79445  1.0000
  Ta  Ta1780    1.0  0.97056  0.82848  0.83148  1.0000
  Ta  Ta1781    1.0  0.98658  0.87642  0.76753  1.0000
  Ta  Ta1782    1.0  0.03474  0.97439  0.68144  1.0000
  Ta  Ta1783    1.0  0.04939  0.92457  0.75856  1.0000
  Ta  Ta1784    1.0  0.13917  0.96300  0.65557  1.0000
  Ta  Ta1785    1.0  0.17862  0.98006  0.72300  1.0000
  Ta  Ta1786    1.0  0.27132  0.90781  0.77233  1.0000
  Ta  Ta1787    1.0  0.31511  0.86271  0.71140  1.0000
  Ta  Ta1788    1.0  0.39294  0.99610  0.71996  1.0000
  Ta  Ta1789    1.0  0.40280  0.90438  0.72561  1.0000
  Ta  Ta1790    1.0  0.46046  0.93724  0.67936  1.0000
  Ta  Ta1791    1.0  0.48825  0.88199  0.73382  1.0000
  Ta  Ta1792    1.0  0.55045  0.88559  0.79418  1.0000
  Ta  Ta1793    1.0  0.56434  0.89298  0.72066  1.0000
  Ta  Ta1794    1.0  0.60882  0.94483  0.76448  1.0000
  Ta  Ta1795    1.0  0.67167  0.88257  0.73645  1.0000
  Ta  Ta1796    1.0  0.77164  0.88222  0.70037  1.0000
  Ta  Ta1797    1.0  0.77870  0.83375  0.78726  1.0000
  Ta  Ta1798    1.0  0.84406  0.90911  0.71849  1.0000
  Ta  Ta1799    1.0  0.93528  0.91292  0.70293  1.0000
  Ta  Ta1800    1.0  0.90729  0.97351  0.78483  1.0000
  Ta  Ta1801    1.0  0.04433  0.48192  0.83932  1.0000
  Ta  Ta1802    1.0  0.03011  0.56574  0.89352  1.0000
  Ta  Ta1803    1.0  0.09892  0.51171  0.87987  1.0000
  Ta  Ta1804    1.0  0.15064  0.58870  0.85782  1.0000
  Ta  Ta1805    1.0  0.22904  0.59515  0.83715  1.0000
  Ta  Ta1806    1.0  0.31021  0.55578  0.87174  1.0000
  Ta  Ta1807    1.0  0.29454  0.55148  0.80347  1.0000
  Ta  Ta1808    1.0  0.38441  0.61295  0.84820  1.0000
  Ta  Ta1809    1.0  0.42789  0.50051  0.81135  1.0000
  Ta  Ta1810    1.0  0.48756  0.58169  0.77556  1.0000
  Ta  Ta1811    1.0  0.55259  0.50114  0.79104  1.0000
  Ta  Ta1812    1.0  0.56008  0.57447  0.82299  1.0000
  Ta  Ta1813    1.0  0.55806  0.48152  0.86388  1.0000
  Ta  Ta1814    1.0  0.67407  0.54875  0.84934  1.0000
  Ta  Ta1815    1.0  0.69503  0.49502  0.76845  1.0000
  Ta  Ta1816    1.0  0.72866  0.54645  0.90456  1.0000
  Ta  Ta1817    1.0  0.76524  0.50974  0.83592  1.0000
  Ta  Ta1818    1.0  0.83152  0.48678  0.88498  1.0000
  Ta  Ta1819    1.0  0.84713  0.46419  0.74251  1.0000
  Ta  Ta1820    1.0  0.00998  0.60337  0.81343  1.0000
  Ta  Ta1821    1.0  0.04699  0.68593  0.76995  1.0000
  Ta  Ta1822    1.0  0.14181  0.67774  0.87702  1.0000
  Ta  Ta1823    1.0  0.08211  0.54322  0.81316  1.0000
  Ta  Ta1824    1.0  0.19151  0.65320  0.80384  1.0000
  Ta  Ta1825    1.0  0.15954  0.58834  0.77285  1.0000
  Ta  Ta1826    1.0  0.22232  0.66222  0.87707  1.0000
  Ta  Ta1827    1.0  0.26636  0.65997  0.79778  1.0000
  Ta  Ta1828    1.0  0.30396  0.64190  0.89799  1.0000
  Ta  Ta1829    1.0  0.37392  0.66165  0.78332  1.0000
  Ta  Ta1830    1.0  0.51610  0.63764  0.83151  1.0000
  Ta  Ta1831    1.0  0.55276  0.57708  0.73431  1.0000
  Ta  Ta1832    1.0  0.55767  0.69776  0.85244  1.0000
  Ta  Ta1833    1.0  0.61558  0.63321  0.79609  1.0000
  Ta  Ta1834    1.0  0.62932  0.69114  0.87025  1.0000
  Ta  Ta1835    1.0  0.69501  0.62236  0.85052  1.0000
  Ta  Ta1836    1.0  0.84564  0.66661  0.88889  1.0000
  Ta  Ta1837    1.0  0.78188  0.58252  0.82058  1.0000
  Ta  Ta1838    1.0  0.97217  0.60578  0.73015  1.0000
  Ta  Ta1839    1.0  0.85746  0.52258  0.81140  1.0000
  Ta  Ta1840    1.0  0.94154  0.58439  0.87271  1.0000
  Ta  Ta1841    1.0  0.00756  0.67416  0.82875  1.0000
  Ta  Ta1842    1.0  0.04495  0.70345  0.89922  1.0000
  Ta  Ta1843    1.0  0.08694  0.71444  0.83514  1.0000
  Ta  Ta1844    1.0  0.15131  0.74911  0.84326  1.0000
  Ta  Ta1845    1.0  0.13813  0.68930  0.77799  1.0000
  Ta  Ta1846    1.0  0.28038  0.74179  0.89334  1.0000
  Ta  Ta1847    1.0  0.28970  0.73068  0.74860  1.0000
  Ta  Ta1848    1.0  0.33141  0.77918  0.84543  1.0000
  Ta  Ta1849    1.0  0.32865  0.67866  0.83511  1.0000
  Ta  Ta1850    1.0  0.48307  0.72858  0.82322  1.0000
  Ta  Ta1851    1.0  0.53088  0.66728  0.75317  1.0000
  Ta  Ta1852    1.0  0.51226  0.76032  0.75315  1.0000
  Ta  Ta1853    1.0  0.61362  0.70404  0.77120  1.0000
  Ta  Ta1854    1.0  0.58409  0.75863  0.82026  1.0000
  Ta  Ta1855    1.0  0.77466  0.66275  0.82917  1.0000
  Ta  Ta1856    1.0  0.76155  0.76690  0.85540  1.0000
  Ta  Ta1857    1.0  0.84954  0.65474  0.80233  1.0000
  Ta  Ta1858    1.0  0.89418  0.71569  0.86969  1.0000
  Ta  Ta1859    1.0  0.92322  0.58742  0.79274  1.0000
  Ta  Ta1860    1.0  0.00122  0.74277  0.78701  1.0000
  Ta  Ta1861    1.0  0.04044  0.78745  0.85663  1.0000
  Ta  Ta1862    1.0  0.10999  0.82237  0.84366  1.0000
  Ta  Ta1863    1.0  0.11920  0.76820  0.77215  1.0000
  Ta  Ta1864    1.0  0.15176  0.84716  0.90403  1.0000
  Ta  Ta1865    1.0  0.17734  0.81527  0.80992  1.0000
  Ta  Ta1866    1.0  0.21683  0.86832  0.85238  1.0000
  Ta  Ta1867    1.0  0.26364  0.81538  0.79792  1.0000
  Ta  Ta1868    1.0  0.39135  0.83026  0.84550  1.0000
  Ta  Ta1869    1.0  0.38386  0.74185  0.80258  1.0000
  Ta  Ta1870    1.0  0.42176  0.76679  0.87871  1.0000
  Ta  Ta1871    1.0  0.46685  0.82783  0.88447  1.0000
  Ta  Ta1872    1.0  0.55279  0.86947  0.87758  1.0000
  Ta  Ta1873    1.0  0.51927  0.81447  0.81876  1.0000
  Ta  Ta1874    1.0  0.63292  0.87388  0.80495  1.0000
  Ta  Ta1875    1.0  0.70304  0.81561  0.80964  1.0000
  Ta  Ta1876    1.0  0.75988  0.85025  0.85194  1.0000
  Ta  Ta1877    1.0  0.84061  0.75606  0.83083  1.0000
  Ta  Ta1878    1.0  0.90615  0.89753  0.78303  1.0000
  Ta  Ta1879    1.0  0.98522  0.86050  0.91545  1.0000
  Ta  Ta1880    1.0  0.06264  0.84707  0.92534  1.0000
  Ta  Ta1881    1.0  0.03855  0.87264  0.84468  1.0000
  Ta  Ta1882    1.0  0.04490  0.94815  0.84002  1.0000
  Ta  Ta1883    1.0  0.12451  0.89145  0.78917  1.0000
  Ta  Ta1884    1.0  0.18569  0.94213  0.87247  1.0000
  Ta  Ta1885    1.0  0.21099  0.85826  0.74363  1.0000
  Ta  Ta1886    1.0  0.31488  0.90876  0.83847  1.0000
  Ta  Ta1887    1.0  0.33585  0.94862  0.76714  1.0000
  Ta  Ta1888    1.0  0.39995  0.91483  0.84303  1.0000
  Ta  Ta1889    1.0  0.44697  0.96180  0.77306  1.0000
  Ta  Ta1890    1.0  0.44303  0.98053  0.85401  1.0000
  Ta  Ta1891    1.0  0.46104  0.88495  0.80033  1.0000
  Ta  Ta1892    1.0  0.57660  0.93826  0.84715  1.0000
  Ta  Ta1893    1.0  0.58512  0.82125  0.75805  1.0000
  Ta  Ta1894    1.0  0.65692  0.95647  0.85369  1.0000
  Ta  Ta1895    1.0  0.72347  0.89834  0.79192  1.0000
  Ta  Ta1896    1.0  0.76668  0.97275  0.82830  1.0000
  Ta  Ta1897    1.0  0.84685  0.83022  0.86141  1.0000
  Ta  Ta1898    1.0  0.86930  0.85905  0.93075  1.0000
  Ta  Ta1899    1.0  0.84817  0.84515  0.77606  1.0000
  Ta  Ta1900    1.0  0.96542  0.92572  0.84103  1.0000
  Ta  Ta1901    1.0  0.95959  0.56372  0.94511  1.0000
  Ta  Ta1902    1.0  0.03778  0.57180  0.97176  1.0000
  Ta  Ta1903    1.0  0.06040  0.43342  0.92190  1.0000
  Ta  Ta1904    1.0  0.19390  0.60266  0.98464  1.0000
  Ta  Ta1905    1.0  0.16673  0.49938  0.92258  1.0000
  Ta  Ta1906    1.0  0.23835  0.51634  0.95263  1.0000
  Ta  Ta1907    1.0  0.30170  0.48238  0.88852  1.0000
  Ta  Ta1908    1.0  0.37346  0.55726  0.94447  1.0000
  Ta  Ta1909    1.0  0.43642  0.56858  0.87435  1.0000
  Ta  Ta1910    1.0  0.45098  0.58214  0.95818  1.0000
  Ta  Ta1911    1.0  0.52255  0.49922  0.95248  1.0000
  Ta  Ta1912    1.0  0.50411  0.55735  0.89935  1.0000
  Ta  Ta1913    1.0  0.58355  0.54852  0.91711  1.0000
  Ta  Ta1914    1.0  0.66357  0.54469  0.92994  1.0000
  Ta  Ta1915    1.0  0.69253  0.46625  0.87040  1.0000
  Ta  Ta1916    1.0  0.75462  0.56736  0.97323  1.0000
  Ta  Ta1917    1.0  0.75632  0.47725  0.91775  1.0000
  Ta  Ta1918    1.0  0.82761  0.50016  0.96778  1.0000
  Ta  Ta1919    1.0  0.89104  0.44261  0.81555  1.0000
  Ta  Ta1920    1.0  0.90940  0.44052  0.88485  1.0000
  Ta  Ta1921    1.0  0.91540  0.52331  0.89537  1.0000
  Ta  Ta1922    1.0  0.99989  0.63676  0.90450  1.0000
  Ta  Ta1923    1.0  0.07782  0.63024  0.86027  1.0000
  Ta  Ta1924    1.0  0.18045  0.67771  0.02001  1.0000
  Ta  Ta1925    1.0  0.25790  0.58977  0.93298  1.0000
  Ta  Ta1926    1.0  0.24491  0.66160  0.96627  1.0000
  Ta  Ta1927    1.0  0.31975  0.57986  0.98482  1.0000
  Ta  Ta1928    1.0  0.33033  0.68187  0.97182  1.0000
  Ta  Ta1929    1.0  0.37517  0.62929  0.93462  1.0000
  Ta  Ta1930    1.0  0.40815  0.69966  0.86113  1.0000
  Ta  Ta1931    1.0  0.44502  0.65477  0.91259  1.0000
  Ta  Ta1932    1.0  0.59443  0.66651  0.94211  1.0000
  Ta  Ta1933    1.0  0.61532  0.61611  0.87582  1.0000
  Ta  Ta1934    1.0  0.69489  0.68166  0.90718  1.0000
  Ta  Ta1935    1.0  0.67665  0.61962  0.96463  1.0000
  Ta  Ta1936    1.0  0.79097  0.71263  0.91460  1.0000
  Ta  Ta1937    1.0  0.76883  0.62872  0.89863  1.0000
  Ta  Ta1938    1.0  0.87172  0.77673  0.94942  1.0000
  Ta  Ta1939    1.0  0.80419  0.55552  0.89414  1.0000
  Ta  Ta1940    1.0  0.89841  0.63059  0.92195  1.0000
  Ta  Ta1941    1.0  0.97575  0.73800  0.85637  1.0000
  Ta  Ta1942    1.0  0.07818  0.64198  0.93429  1.0000
  Ta  Ta1943    1.0  0.12905  0.70022  0.95734  1.0000
  Ta  Ta1944    1.0  0.18642  0.77962  0.97030  1.0000
  Ta  Ta1945    1.0  0.19838  0.73226  0.90038  1.0000
  Ta  Ta1946    1.0  0.25973  0.71526  0.04645  1.0000
  Ta  Ta1947    1.0  0.25854  0.74787  0.97435  1.0000
  Ta  Ta1948    1.0  0.33310  0.70552  0.06122  1.0000
  Ta  Ta1949    1.0  0.41293  0.71391  0.95836  1.0000
  Ta  Ta1950    1.0  0.48319  0.72045  0.89645  1.0000
  Ta  Ta1951    1.0  0.51590  0.63276  0.91182  1.0000
  Ta  Ta1952    1.0  0.56798  0.76340  0.97871  1.0000
  Ta  Ta1953    1.0  0.52136  0.70007  0.95645  1.0000
  Ta  Ta1954    1.0  0.65469  0.74641  0.94096  1.0000
  Ta  Ta1955    1.0  0.66962  0.75483  0.86212  1.0000
  Ta  Ta1956    1.0  0.73782  0.76827  0.96610  1.0000
  Ta  Ta1957    1.0  0.86018  0.68574  0.96605  1.0000
  Ta  Ta1958    1.0  0.85973  0.71784  0.04313  1.0000
  Ta  Ta1959    1.0  0.93218  0.65608  0.83143  1.0000
  Ta  Ta1960    1.0  0.94668  0.73562  0.96112  1.0000
  Ta  Ta1961    1.0  0.04213  0.74712  0.06996  1.0000
  Ta  Ta1962    1.0  0.09825  0.76007  0.98932  1.0000
  Ta  Ta1963    1.0  0.10278  0.77516  0.90414  1.0000
  Ta  Ta1964    1.0  0.12406  0.84103  0.98254  1.0000
  Ta  Ta1965    1.0  0.23100  0.82600  0.92203  1.0000
  Ta  Ta1966    1.0  0.26655  0.85971  0.99728  1.0000
  Ta  Ta1967    1.0  0.34834  0.72437  0.91436  1.0000
  Ta  Ta1968    1.0  0.31654  0.81162  0.95277  1.0000
  Ta  Ta1969    1.0  0.41223  0.81019  0.95413  1.0000
  Ta  Ta1970    1.0  0.52259  0.85446  0.96097  1.0000
  Ta  Ta1971    1.0  0.55131  0.76886  0.89645  1.0000
  Ta  Ta1972    1.0  0.56690  0.94548  0.93022  1.0000
  Ta  Ta1973    1.0  0.65882  0.81116  0.00577  1.0000
  Ta  Ta1974    1.0  0.70183  0.77118  0.04626  1.0000
  Ta  Ta1975    1.0  0.70942  0.81388  0.90835  1.0000
  Ta  Ta1976    1.0  0.78419  0.87226  0.93851  1.0000
  Ta  Ta1977    1.0  0.81086  0.79690  0.91817  1.0000
  Ta  Ta1978    1.0  0.92537  0.79258  0.89135  1.0000
  Ta  Ta1979    1.0  0.94891  0.80819  0.96932  1.0000
  Ta  Ta1980    1.0  0.01770  0.78045  0.92894  1.0000
  Ta  Ta1981    1.0  0.01471  0.93752  0.91110  1.0000
  Ta  Ta1982    1.0  0.06336  0.90806  0.98555  1.0000
  Ta  Ta1983    1.0  0.10499  0.89507  0.87656  1.0000
  Ta  Ta1984    1.0  0.13059  0.93451  0.94529  1.0000
  Ta  Ta1985    1.0  0.26970  0.90456  0.90526  1.0000
  Ta  Ta1986    1.0  0.25198  0.98250  0.91063  1.0000
  Ta  Ta1987    1.0  0.29266  0.84143  0.86133  1.0000
  Ta  Ta1988    1.0  0.35793  0.95049  0.90009  1.0000
  Ta  Ta1989    1.0  0.36687  0.86809  0.91198  1.0000
  Ta  Ta1990    1.0  0.48390  0.94294  0.00426  1.0000
  Ta  Ta1991    1.0  0.44516  0.90300  0.93000  1.0000
  Ta  Ta1992    1.0  0.61947  0.98347  0.97326  1.0000
  Ta  Ta1993    1.0  0.63066  0.89264  0.90059  1.0000
  Ta  Ta1994    1.0  0.70253  0.86807  0.96343  1.0000
  Ta  Ta1995    1.0  0.71581  0.91379  0.88029  1.0000
  Ta  Ta1996    1.0  0.71452  0.93302  0.99483  1.0000
  Ta  Ta1997    1.0  0.80554  0.92933  0.89605  1.0000
  Ta  Ta1998    1.0  0.87883  0.98967  0.92274  1.0000
  Ta  Ta1999    1.0  0.91553  0.86856  0.87588  1.0000
  Ta  Ta2000    1.0  0.94222  0.95399  0.97393  1.0000
